[VMEM] WARNING: physical memory size is smaller than virtual memory size.

*** ChampSim Multicore Out-of-Order Simulator ***
Warmup Instructions: 2000000
Simulation Instructions: 10000000
Number of CPUs: 1
Page size: 4096

Off-chip DRAM Size: 16 GiB Channels: 1 Width: 64-bit Data Rate: 3205 MT/s
Warmup finished CPU 0 instructions: 2000000 cycles: 579015 cumulative IPC: 3.454 (Simulation time: 00 hr 00 min 06 sec)
Warmup complete CPU 0 instructions: 2000000 cycles: 579015 cumulative IPC: 3.454 (Simulation time: 00 hr 00 min 06 sec)
Heartbeat CPU 0 instructions: 10000002 cycles: 4148609 heartbeat IPC: 2.41 cumulative IPC: 2.241 (Simulation time: 00 hr 00 min 33 sec)
Simulation finished CPU 0 instructions: 10000000 cycles: 4453179 cumulative IPC: 2.246 (Simulation time: 00 hr 00 min 39 sec)
Simulation complete CPU 0 instructions: 10000000 cycles: 4453179 cumulative IPC: 2.246 (Simulation time: 00 hr 00 min 39 sec)

ChampSim completed all CPUs

=== Simulation ===
CPU 0 runs traces/600.perlbench_s-1273B.champsimtrace.xz

Region of Interest Statistics

CPU 0 cumulative IPC: 2.246 instructions: 10000000 cycles: 4453179
CPU 0 Branch Prediction Accuracy: 98.32% MPKI: 2.265 Average ROB Occupancy at Mispredict: 137.8
Branch type MPKI
BRANCH_DIRECT_JUMP: 0.0185
BRANCH_INDIRECT: 0.0036
BRANCH_CONDITIONAL: 2.238
BRANCH_DIRECT_CALL: 0.0017
BRANCH_INDIRECT_CALL: 0.0013
BRANCH_RETURN: 0.0018

cpu0->cpu0_STLB TOTAL        ACCESS:       1694 HIT:       1603 MISS:         91 MSHR_MERGE:          0
cpu0->cpu0_STLB LOAD         ACCESS:       1694 HIT:       1603 MISS:         91 MSHR_MERGE:          0
cpu0->cpu0_STLB RFO          ACCESS:          0 HIT:          0 MISS:          0 MSHR_MERGE:          0
cpu0->cpu0_STLB PREFETCH     ACCESS:          0 HIT:          0 MISS:          0 MSHR_MERGE:          0
cpu0->cpu0_STLB WRITE        ACCESS:          0 HIT:          0 MISS:          0 MSHR_MERGE:          0
cpu0->cpu0_STLB TRANSLATION  ACCESS:          0 HIT:          0 MISS:          0 MSHR_MERGE:          0
cpu0->cpu0_STLB PREFETCH REQUESTED:          0 ISSUED:          0 USEFUL:          0 USELESS:          0
cpu0->cpu0_STLB AVERAGE MISS LATENCY: 781.5 cycles
cpu0->cpu0_L2C TOTAL        ACCESS:       1102 HIT:        298 MISS:        804 MSHR_MERGE:          0
cpu0->cpu0_L2C LOAD         ACCESS:        873 HIT:        254 MISS:        619 MSHR_MERGE:          0
cpu0->cpu0_L2C RFO          ACCESS:         23 HIT:          3 MISS:         20 MSHR_MERGE:          0
cpu0->cpu0_L2C PREFETCH     ACCESS:          0 HIT:          0 MISS:          0 MSHR_MERGE:          0
cpu0->cpu0_L2C WRITE        ACCESS:         39 HIT:         39 MISS:          0 MSHR_MERGE:          0
cpu0->cpu0_L2C TRANSLATION  ACCESS:        167 HIT:          2 MISS:        165 MSHR_MERGE:          0
cpu0->cpu0_L2C PREFETCH REQUESTED:          0 ISSUED:          0 USEFUL:          0 USELESS:          0
cpu0->cpu0_L2C AVERAGE MISS LATENCY: 190.3 cycles
cpu0->cpu0_L1I TOTAL        ACCESS:     435325 HIT:     434875 MISS:        450 MSHR_MERGE:         91
cpu0->cpu0_L1I LOAD         ACCESS:     435325 HIT:     434875 MISS:        450 MSHR_MERGE:         91
cpu0->cpu0_L1I RFO          ACCESS:          0 HIT:          0 MISS:          0 MSHR_MERGE:          0
cpu0->cpu0_L1I PREFETCH     ACCESS:          0 HIT:          0 MISS:          0 MSHR_MERGE:          0
cpu0->cpu0_L1I WRITE        ACCESS:          0 HIT:          0 MISS:          0 MSHR_MERGE:          0
cpu0->cpu0_L1I TRANSLATION  ACCESS:          0 HIT:          0 MISS:          0 MSHR_MERGE:          0
cpu0->cpu0_L1I PREFETCH REQUESTED:          0 ISSUED:          0 USEFUL:          0 USELESS:          0
cpu0->cpu0_L1I AVERAGE MISS LATENCY: 69 cycles
cpu0->cpu0_L1D TOTAL        ACCESS:    3221957 HIT:    3221006 MISS:        951 MSHR_MERGE:        247
cpu0->cpu0_L1D LOAD         ACCESS:    1260282 HIT:    1259576 MISS:        706 MSHR_MERGE:        192
cpu0->cpu0_L1D RFO          ACCESS:          0 HIT:          0 MISS:          0 MSHR_MERGE:          0
cpu0->cpu0_L1D PREFETCH     ACCESS:          0 HIT:          0 MISS:          0 MSHR_MERGE:          0
cpu0->cpu0_L1D WRITE        ACCESS:    1961489 HIT:    1961411 MISS:         78 MSHR_MERGE:         55
cpu0->cpu0_L1D TRANSLATION  ACCESS:        186 HIT:         19 MISS:        167 MSHR_MERGE:          0
cpu0->cpu0_L1D PREFETCH REQUESTED:          0 ISSUED:          0 USEFUL:          0 USELESS:          0
cpu0->cpu0_L1D AVERAGE MISS LATENCY: 194.9 cycles
cpu0->cpu0_ITLB TOTAL        ACCESS:     381859 HIT:     381790 MISS:         69 MSHR_MERGE:         44
cpu0->cpu0_ITLB LOAD         ACCESS:     381859 HIT:     381790 MISS:         69 MSHR_MERGE:         44
cpu0->cpu0_ITLB RFO          ACCESS:          0 HIT:          0 MISS:          0 MSHR_MERGE:          0
cpu0->cpu0_ITLB PREFETCH     ACCESS:          0 HIT:          0 MISS:          0 MSHR_MERGE:          0
cpu0->cpu0_ITLB WRITE        ACCESS:          0 HIT:          0 MISS:          0 MSHR_MERGE:          0
cpu0->cpu0_ITLB TRANSLATION  ACCESS:          0 HIT:          0 MISS:          0 MSHR_MERGE:          0
cpu0->cpu0_ITLB PREFETCH REQUESTED:          0 ISSUED:          0 USEFUL:          0 USELESS:          0
cpu0->cpu0_ITLB AVERAGE MISS LATENCY: 209.8 cycles
cpu0->cpu0_DTLB TOTAL        ACCESS:    2897200 HIT:    2895250 MISS:       1950 MSHR_MERGE:        281
cpu0->cpu0_DTLB LOAD         ACCESS:    2897200 HIT:    2895250 MISS:       1950 MSHR_MERGE:        281
cpu0->cpu0_DTLB RFO          ACCESS:          0 HIT:          0 MISS:          0 MSHR_MERGE:          0
cpu0->cpu0_DTLB PREFETCH     ACCESS:          0 HIT:          0 MISS:          0 MSHR_MERGE:          0
cpu0->cpu0_DTLB WRITE        ACCESS:          0 HIT:          0 MISS:          0 MSHR_MERGE:          0
cpu0->cpu0_DTLB TRANSLATION  ACCESS:          0 HIT:          0 MISS:          0 MSHR_MERGE:          0
cpu0->cpu0_DTLB PREFETCH REQUESTED:          0 ISSUED:          0 USEFUL:          0 USELESS:          0
cpu0->cpu0_DTLB AVERAGE MISS LATENCY: 44.6 cycles
cpu0->LLC TOTAL        ACCESS:        804 HIT:          0 MISS:        804 MSHR_MERGE:          0
cpu0->LLC LOAD         ACCESS:        619 HIT:          0 MISS:        619 MSHR_MERGE:          0
cpu0->LLC RFO          ACCESS:         20 HIT:          0 MISS:         20 MSHR_MERGE:          0
cpu0->LLC PREFETCH     ACCESS:          0 HIT:          0 MISS:          0 MSHR_MERGE:          0
cpu0->LLC WRITE        ACCESS:          0 HIT:          0 MISS:          0 MSHR_MERGE:          0
cpu0->LLC TRANSLATION  ACCESS:        165 HIT:          0 MISS:        165 MSHR_MERGE:          0
cpu0->LLC PREFETCH REQUESTED:          0 ISSUED:          0 USEFUL:          0 USELESS:          0
cpu0->LLC AVERAGE MISS LATENCY: 174.3 cycles

DRAM Statistics

Channel 0 RQ ROW_BUFFER_HIT:          4
  ROW_BUFFER_MISS:        800
  AVG DBUS CONGESTED CYCLE: 2.766
Channel 0 WQ ROW_BUFFER_HIT:          0
  ROW_BUFFER_MISS:          0
  FULL:          0
Channel 0 REFRESHES ISSUED:        371
