[VMEM] WARNING: physical memory size is smaller than virtual memory size.

*** ChampSim Multicore Out-of-Order Simulator ***
Warmup Instructions: 2000000
Simulation Instructions: 10000000
Number of CPUs: 1
Page size: 4096

Off-chip DRAM Size: 16 GiB Channels: 1 Width: 64-bit Data Rate: 3205 MT/s
Warmup finished CPU 0 instructions: 2000002 cycles: 566322 cumulative IPC: 3.532 (Simulation time: 00 hr 00 min 06 sec)
Warmup complete CPU 0 instructions: 2000002 cycles: 566322 cumulative IPC: 3.532 (Simulation time: 00 hr 00 min 06 sec)
Heartbeat CPU 0 instructions: 10000004 cycles: 9562915 heartbeat IPC: 1.046 cumulative IPC: 0.8892 (Simulation time: 00 hr 01 min 05 sec)
Simulation finished CPU 0 instructions: 10000000 cycles: 11227270 cumulative IPC: 0.8907 (Simulation time: 00 hr 01 min 21 sec)
Simulation complete CPU 0 instructions: 10000000 cycles: 11227270 cumulative IPC: 0.8907 (Simulation time: 00 hr 01 min 21 sec)

ChampSim completed all CPUs

=== Simulation ===
CPU 0 runs traces/603.bwaves_s-2931B.champsimtrace.xz

Region of Interest Statistics

CPU 0 cumulative IPC: 0.8907 instructions: 10000000 cycles: 11227270
CPU 0 Branch Prediction Accuracy: 96.75% MPKI: 0.2747 Average ROB Occupancy at Mispredict: 348.9
Branch type MPKI
BRANCH_DIRECT_JUMP: 0
BRANCH_INDIRECT: 0
BRANCH_CONDITIONAL: 0.2747
BRANCH_DIRECT_CALL: 0
BRANCH_INDIRECT_CALL: 0
BRANCH_RETURN: 0

cpu0->cpu0_STLB TOTAL        ACCESS:      18119 HIT:      15991 MISS:       2128 MSHR_MERGE:          0
cpu0->cpu0_STLB LOAD         ACCESS:      18119 HIT:      15991 MISS:       2128 MSHR_MERGE:          0
cpu0->cpu0_STLB RFO          ACCESS:          0 HIT:          0 MISS:          0 MSHR_MERGE:          0
cpu0->cpu0_STLB PREFETCH     ACCESS:          0 HIT:          0 MISS:          0 MSHR_MERGE:          0
cpu0->cpu0_STLB WRITE        ACCESS:          0 HIT:          0 MISS:          0 MSHR_MERGE:          0
cpu0->cpu0_STLB TRANSLATION  ACCESS:          0 HIT:          0 MISS:          0 MSHR_MERGE:          0
cpu0->cpu0_STLB PREFETCH REQUESTED:          0 ISSUED:          0 USEFUL:          0 USELESS:          0
cpu0->cpu0_STLB AVERAGE MISS LATENCY: 694.2 cycles
cpu0->cpu0_L2C TOTAL        ACCESS:     235083 HIT:      85768 MISS:     149315 MSHR_MERGE:          0
cpu0->cpu0_L2C LOAD         ACCESS:     103749 HIT:      16432 MISS:      87317 MSHR_MERGE:          0
cpu0->cpu0_L2C RFO          ACCESS:      63167 HIT:       3625 MISS:      59542 MSHR_MERGE:          0
cpu0->cpu0_L2C PREFETCH     ACCESS:          0 HIT:          0 MISS:          0 MSHR_MERGE:          0
cpu0->cpu0_L2C WRITE        ACCESS:      63926 HIT:      63922 MISS:          4 MSHR_MERGE:          0
cpu0->cpu0_L2C TRANSLATION  ACCESS:       4241 HIT:       1789 MISS:       2452 MSHR_MERGE:          0
cpu0->cpu0_L2C PREFETCH REQUESTED:          0 ISSUED:          0 USEFUL:          0 USELESS:          0
cpu0->cpu0_L2C AVERAGE MISS LATENCY: 224.3 cycles
cpu0->cpu0_L1I TOTAL        ACCESS:    1814522 HIT:    1814522 MISS:          0 MSHR_MERGE:          0
cpu0->cpu0_L1I LOAD         ACCESS:    1814522 HIT:    1814522 MISS:          0 MSHR_MERGE:          0
cpu0->cpu0_L1I RFO          ACCESS:          0 HIT:          0 MISS:          0 MSHR_MERGE:          0
cpu0->cpu0_L1I PREFETCH     ACCESS:          0 HIT:          0 MISS:          0 MSHR_MERGE:          0
cpu0->cpu0_L1I WRITE        ACCESS:          0 HIT:          0 MISS:          0 MSHR_MERGE:          0
cpu0->cpu0_L1I TRANSLATION  ACCESS:          0 HIT:          0 MISS:          0 MSHR_MERGE:          0
cpu0->cpu0_L1I PREFETCH REQUESTED:          0 ISSUED:          0 USEFUL:          0 USELESS:          0
cpu0->cpu0_L1I AVERAGE MISS LATENCY: - cycles
cpu0->cpu0_L1D TOTAL        ACCESS:    3324172 HIT:    2997977 MISS:     326195 MSHR_MERGE:     154985
cpu0->cpu0_L1D LOAD         ACCESS:    1490578 HIT:    1385853 MISS:     104725 MSHR_MERGE:        976
cpu0->cpu0_L1D RFO          ACCESS:          0 HIT:          0 MISS:          0 MSHR_MERGE:          0
cpu0->cpu0_L1D PREFETCH     ACCESS:          0 HIT:          0 MISS:          0 MSHR_MERGE:          0
cpu0->cpu0_L1D WRITE        ACCESS:    1829337 HIT:    1612108 MISS:     217229 MSHR_MERGE:     154009
cpu0->cpu0_L1D TRANSLATION  ACCESS:       4257 HIT:         16 MISS:       4241 MSHR_MERGE:          0
cpu0->cpu0_L1D PREFETCH REQUESTED:          0 ISSUED:          0 USEFUL:          0 USELESS:          0
cpu0->cpu0_L1D AVERAGE MISS LATENCY: 204.5 cycles
cpu0->cpu0_ITLB TOTAL        ACCESS:    1438130 HIT:    1438130 MISS:          0 MSHR_MERGE:          0
cpu0->cpu0_ITLB LOAD         ACCESS:    1438130 HIT:    1438130 MISS:          0 MSHR_MERGE:          0
cpu0->cpu0_ITLB RFO          ACCESS:          0 HIT:          0 MISS:          0 MSHR_MERGE:          0
cpu0->cpu0_ITLB PREFETCH     ACCESS:          0 HIT:          0 MISS:          0 MSHR_MERGE:          0
cpu0->cpu0_ITLB WRITE        ACCESS:          0 HIT:          0 MISS:          0 MSHR_MERGE:          0
cpu0->cpu0_ITLB TRANSLATION  ACCESS:          0 HIT:          0 MISS:          0 MSHR_MERGE:          0
cpu0->cpu0_ITLB PREFETCH REQUESTED:          0 ISSUED:          0 USEFUL:          0 USELESS:          0
cpu0->cpu0_ITLB AVERAGE MISS LATENCY: - cycles
cpu0->cpu0_DTLB TOTAL        ACCESS:    3061491 HIT:    3041316 MISS:      20175 MSHR_MERGE:       2056
cpu0->cpu0_DTLB LOAD         ACCESS:    3061491 HIT:    3041316 MISS:      20175 MSHR_MERGE:       2056
cpu0->cpu0_DTLB RFO          ACCESS:          0 HIT:          0 MISS:          0 MSHR_MERGE:          0
cpu0->cpu0_DTLB PREFETCH     ACCESS:          0 HIT:          0 MISS:          0 MSHR_MERGE:          0
cpu0->cpu0_DTLB WRITE        ACCESS:          0 HIT:          0 MISS:          0 MSHR_MERGE:          0
cpu0->cpu0_DTLB TRANSLATION  ACCESS:          0 HIT:          0 MISS:          0 MSHR_MERGE:          0
cpu0->cpu0_DTLB PREFETCH REQUESTED:          0 ISSUED:          0 USEFUL:          0 USELESS:          0
cpu0->cpu0_DTLB AVERAGE MISS LATENCY: 86.66 cycles
cpu0->LLC TOTAL        ACCESS:     208510 HIT:      69947 MISS:     138563 MSHR_MERGE:          0
cpu0->LLC LOAD         ACCESS:      87317 HIT:      10752 MISS:      76565 MSHR_MERGE:          0
cpu0->LLC RFO          ACCESS:      59542 HIT:          0 MISS:      59542 MSHR_MERGE:          0
cpu0->LLC PREFETCH     ACCESS:          0 HIT:          0 MISS:          0 MSHR_MERGE:          0
cpu0->LLC WRITE        ACCESS:      59199 HIT:      59195 MISS:          4 MSHR_MERGE:          0
cpu0->LLC TRANSLATION  ACCESS:       2452 HIT:          0 MISS:       2452 MSHR_MERGE:          0
cpu0->LLC PREFETCH REQUESTED:          0 ISSUED:          0 USEFUL:          0 USELESS:          0
cpu0->LLC AVERAGE MISS LATENCY: 224.5 cycles

DRAM Statistics

Channel 0 RQ ROW_BUFFER_HIT:          1
  ROW_BUFFER_MISS:     138551
  AVG DBUS CONGESTED CYCLE: 11.21
Channel 0 WQ ROW_BUFFER_HIT:      20654
  ROW_BUFFER_MISS:      36989
  FULL:          0
Channel 0 REFRESHES ISSUED:        935
