[VMEM] WARNING: physical memory size is smaller than virtual memory size.

*** ChampSim Multicore Out-of-Order Simulator ***
Warmup Instructions: 2000000
Simulation Instructions: 10000000
Number of CPUs: 1
Page size: 4096

Off-chip DRAM Size: 16 GiB Channels: 1 Width: 64-bit Data Rate: 3205 MT/s
Warmup finished CPU 0 instructions: 2000000 cycles: 943411 cumulative IPC: 2.12 (Simulation time: 00 hr 00 min 08 sec)
Warmup complete CPU 0 instructions: 2000000 cycles: 943411 cumulative IPC: 2.12 (Simulation time: 00 hr 00 min 08 sec)
Heartbeat CPU 0 instructions: 10000004 cycles: 34634318 heartbeat IPC: 0.2887 cumulative IPC: 0.2375 (Simulation time: 00 hr 03 min 45 sec)
Simulation finished CPU 0 instructions: 10000003 cycles: 42173724 cumulative IPC: 0.2371 (Simulation time: 00 hr 04 min 39 sec)
Simulation complete CPU 0 instructions: 10000003 cycles: 42173724 cumulative IPC: 0.2371 (Simulation time: 00 hr 04 min 39 sec)

ChampSim completed all CPUs

=== Simulation ===
CPU 0 runs traces/605.mcf_s-1536B.champsimtrace.xz

Region of Interest Statistics

CPU 0 cumulative IPC: 0.2371 instructions: 10000003 cycles: 42173724
CPU 0 Branch Prediction Accuracy: 99.98% MPKI: 0.0293 Average ROB Occupancy at Mispredict: 275.6
Branch type MPKI
BRANCH_DIRECT_JUMP: 0
BRANCH_INDIRECT: 0
BRANCH_CONDITIONAL: 0.0293
BRANCH_DIRECT_CALL: 0
BRANCH_INDIRECT_CALL: 0
BRANCH_RETURN: 0

cpu0->cpu0_STLB TOTAL        ACCESS:     298840 HIT:      73157 MISS:     225683 MSHR_MERGE:          0
cpu0->cpu0_STLB LOAD         ACCESS:     298840 HIT:      73157 MISS:     225683 MSHR_MERGE:          0
cpu0->cpu0_STLB RFO          ACCESS:          0 HIT:          0 MISS:          0 MSHR_MERGE:          0
cpu0->cpu0_STLB PREFETCH     ACCESS:          0 HIT:          0 MISS:          0 MSHR_MERGE:          0
cpu0->cpu0_STLB WRITE        ACCESS:          0 HIT:          0 MISS:          0 MSHR_MERGE:          0
cpu0->cpu0_STLB TRANSLATION  ACCESS:          0 HIT:          0 MISS:          0 MSHR_MERGE:          0
cpu0->cpu0_STLB PREFETCH REQUESTED:          0 ISSUED:          0 USEFUL:          0 USELESS:          0
cpu0->cpu0_STLB AVERAGE MISS LATENCY: 86.87 cycles
cpu0->cpu0_L2C TOTAL        ACCESS:    1106577 HIT:     416738 MISS:     689839 MSHR_MERGE:          0
cpu0->cpu0_L2C LOAD         ACCESS:     407135 HIT:      95153 MISS:     311982 MSHR_MERGE:          0
cpu0->cpu0_L2C RFO          ACCESS:      28708 HIT:       7522 MISS:      21186 MSHR_MERGE:          0
cpu0->cpu0_L2C PREFETCH     ACCESS:          0 HIT:          0 MISS:          0 MSHR_MERGE:          0
cpu0->cpu0_L2C WRITE        ACCESS:     222677 HIT:     222677 MISS:          0 MSHR_MERGE:          0
cpu0->cpu0_L2C TRANSLATION  ACCESS:     448057 HIT:      91386 MISS:     356671 MSHR_MERGE:          0
cpu0->cpu0_L2C PREFETCH REQUESTED:          0 ISSUED:          0 USEFUL:          0 USELESS:          0
cpu0->cpu0_L2C AVERAGE MISS LATENCY: 108.5 cycles
cpu0->cpu0_L1I TOTAL        ACCESS:    2216463 HIT:    2216463 MISS:          0 MSHR_MERGE:          0
cpu0->cpu0_L1I LOAD         ACCESS:    2216463 HIT:    2216463 MISS:          0 MSHR_MERGE:          0
cpu0->cpu0_L1I RFO          ACCESS:          0 HIT:          0 MISS:          0 MSHR_MERGE:          0
cpu0->cpu0_L1I PREFETCH     ACCESS:          0 HIT:          0 MISS:          0 MSHR_MERGE:          0
cpu0->cpu0_L1I WRITE        ACCESS:          0 HIT:          0 MISS:          0 MSHR_MERGE:          0
cpu0->cpu0_L1I TRANSLATION  ACCESS:          0 HIT:          0 MISS:          0 MSHR_MERGE:          0
cpu0->cpu0_L1I PREFETCH REQUESTED:          0 ISSUED:          0 USEFUL:          0 USELESS:          0
cpu0->cpu0_L1I AVERAGE MISS LATENCY: - cycles
cpu0->cpu0_L1D TOTAL        ACCESS:    2923916 HIT:    1702828 MISS:    1221088 MSHR_MERGE:     337179
cpu0->cpu0_L1D LOAD         ACCESS:    1993643 HIT:    1254919 MISS:     738724 MSHR_MERGE:     331589
cpu0->cpu0_L1D RFO          ACCESS:          0 HIT:          0 MISS:          0 MSHR_MERGE:          0
cpu0->cpu0_L1D PREFETCH     ACCESS:          0 HIT:          0 MISS:          0 MSHR_MERGE:          0
cpu0->cpu0_L1D WRITE        ACCESS:     443442 HIT:     414710 MISS:      28732 MSHR_MERGE:         16
cpu0->cpu0_L1D TRANSLATION  ACCESS:     486831 HIT:      33199 MISS:     453632 MSHR_MERGE:       5574
cpu0->cpu0_L1D PREFETCH REQUESTED:          0 ISSUED:          0 USEFUL:          0 USELESS:          0
cpu0->cpu0_L1D AVERAGE MISS LATENCY: 93.57 cycles
cpu0->cpu0_ITLB TOTAL        ACCESS:    1985672 HIT:    1985672 MISS:          0 MSHR_MERGE:          0
cpu0->cpu0_ITLB LOAD         ACCESS:    1985672 HIT:    1985672 MISS:          0 MSHR_MERGE:          0
cpu0->cpu0_ITLB RFO          ACCESS:          0 HIT:          0 MISS:          0 MSHR_MERGE:          0
cpu0->cpu0_ITLB PREFETCH     ACCESS:          0 HIT:          0 MISS:          0 MSHR_MERGE:          0
cpu0->cpu0_ITLB WRITE        ACCESS:          0 HIT:          0 MISS:          0 MSHR_MERGE:          0
cpu0->cpu0_ITLB TRANSLATION  ACCESS:          0 HIT:          0 MISS:          0 MSHR_MERGE:          0
cpu0->cpu0_ITLB PREFETCH REQUESTED:          0 ISSUED:          0 USEFUL:          0 USELESS:          0
cpu0->cpu0_ITLB AVERAGE MISS LATENCY: - cycles
cpu0->cpu0_DTLB TOTAL        ACCESS:    2417282 HIT:    1726082 MISS:     691200 MSHR_MERGE:     392361
cpu0->cpu0_DTLB LOAD         ACCESS:    2417282 HIT:    1726082 MISS:     691200 MSHR_MERGE:     392361
cpu0->cpu0_DTLB RFO          ACCESS:          0 HIT:          0 MISS:          0 MSHR_MERGE:          0
cpu0->cpu0_DTLB PREFETCH     ACCESS:          0 HIT:          0 MISS:          0 MSHR_MERGE:          0
cpu0->cpu0_DTLB WRITE        ACCESS:          0 HIT:          0 MISS:          0 MSHR_MERGE:          0
cpu0->cpu0_DTLB TRANSLATION  ACCESS:          0 HIT:          0 MISS:          0 MSHR_MERGE:          0
cpu0->cpu0_DTLB PREFETCH REQUESTED:          0 ISSUED:          0 USEFUL:          0 USELESS:          0
cpu0->cpu0_DTLB AVERAGE MISS LATENCY: 71.36 cycles
cpu0->LLC TOTAL        ACCESS:     911558 HIT:     631363 MISS:     280195 MSHR_MERGE:          0
cpu0->LLC LOAD         ACCESS:     311982 HIT:      53347 MISS:     258635 MSHR_MERGE:          0
cpu0->LLC RFO          ACCESS:      21186 HIT:      21180 MISS:          6 MSHR_MERGE:          0
cpu0->LLC PREFETCH     ACCESS:          0 HIT:          0 MISS:          0 MSHR_MERGE:          0
cpu0->LLC WRITE        ACCESS:     221719 HIT:     221719 MISS:          0 MSHR_MERGE:          0
cpu0->LLC TRANSLATION  ACCESS:     356671 HIT:     335117 MISS:      21554 MSHR_MERGE:          0
cpu0->LLC PREFETCH REQUESTED:          0 ISSUED:          0 USEFUL:          0 USELESS:          0
cpu0->LLC AVERAGE MISS LATENCY: 229.2 cycles

DRAM Statistics

Channel 0 RQ ROW_BUFFER_HIT:         66
  ROW_BUFFER_MISS:     280129
  AVG DBUS CONGESTED CYCLE: 5.856
Channel 0 WQ ROW_BUFFER_HIT:      72846
  ROW_BUFFER_MISS:     150371
  FULL:          0
Channel 0 REFRESHES ISSUED:       3515
