[VMEM] WARNING: physical memory size is smaller than virtual memory size.

*** ChampSim Multicore Out-of-Order Simulator ***
Warmup Instructions: 2000000
Simulation Instructions: 10000000
Number of CPUs: 1
Page size: 4096

Off-chip DRAM Size: 16 GiB Channels: 1 Width: 64-bit Data Rate: 3205 MT/s
Warmup finished CPU 0 instructions: 2000004 cycles: 666941 cumulative IPC: 2.999 (Simulation time: 00 hr 00 min 06 sec)
Warmup complete CPU 0 instructions: 2000004 cycles: 666941 cumulative IPC: 2.999 (Simulation time: 00 hr 00 min 06 sec)
Heartbeat CPU 0 instructions: 10000001 cycles: 18525668 heartbeat IPC: 0.5398 cumulative IPC: 0.448 (Simulation time: 00 hr 02 min 17 sec)
Simulation finished CPU 0 instructions: 10000004 cycles: 22145113 cumulative IPC: 0.4516 (Simulation time: 00 hr 02 min 49 sec)
Simulation complete CPU 0 instructions: 10000004 cycles: 22145113 cumulative IPC: 0.4516 (Simulation time: 00 hr 02 min 49 sec)

ChampSim completed all CPUs

=== Simulation ===
CPU 0 runs traces/619.lbm_s-2676B.champsimtrace.xz

Region of Interest Statistics

CPU 0 cumulative IPC: 0.4516 instructions: 10000004 cycles: 22145113
CPU 0 Branch Prediction Accuracy: 97.05% MPKI: 0.5165 Average ROB Occupancy at Mispredict: 237.7
Branch type MPKI
BRANCH_DIRECT_JUMP: 0
BRANCH_INDIRECT: 0
BRANCH_CONDITIONAL: 0.5165
BRANCH_DIRECT_CALL: 0
BRANCH_INDIRECT_CALL: 0
BRANCH_RETURN: 0

cpu0->cpu0_STLB TOTAL        ACCESS:      13234 HIT:       6052 MISS:       7182 MSHR_MERGE:          0
cpu0->cpu0_STLB LOAD         ACCESS:      13234 HIT:       6052 MISS:       7182 MSHR_MERGE:          0
cpu0->cpu0_STLB RFO          ACCESS:          0 HIT:          0 MISS:          0 MSHR_MERGE:          0
cpu0->cpu0_STLB PREFETCH     ACCESS:          0 HIT:          0 MISS:          0 MSHR_MERGE:          0
cpu0->cpu0_STLB WRITE        ACCESS:          0 HIT:          0 MISS:          0 MSHR_MERGE:          0
cpu0->cpu0_STLB TRANSLATION  ACCESS:          0 HIT:          0 MISS:          0 MSHR_MERGE:          0
cpu0->cpu0_STLB PREFETCH REQUESTED:          0 ISSUED:          0 USEFUL:          0 USELESS:          0
cpu0->cpu0_STLB AVERAGE MISS LATENCY: 1069 cycles
cpu0->cpu0_L2C TOTAL        ACCESS:    1418619 HIT:     940251 MISS:     478368 MSHR_MERGE:          0
cpu0->cpu0_L2C LOAD         ACCESS:     114886 HIT:          3 MISS:     114883 MSHR_MERGE:          0
cpu0->cpu0_L2C RFO          ACCESS:     647814 HIT:     292417 MISS:     355397 MSHR_MERGE:          0
cpu0->cpu0_L2C PREFETCH     ACCESS:          0 HIT:          0 MISS:          0 MSHR_MERGE:          0
cpu0->cpu0_L2C WRITE        ACCESS:     647830 HIT:     647830 MISS:          0 MSHR_MERGE:          0
cpu0->cpu0_L2C TRANSLATION  ACCESS:       8089 HIT:          1 MISS:       8088 MSHR_MERGE:          0
cpu0->cpu0_L2C PREFETCH REQUESTED:          0 ISSUED:          0 USEFUL:          0 USELESS:          0
cpu0->cpu0_L2C AVERAGE MISS LATENCY: 489.9 cycles
cpu0->cpu0_L1I TOTAL        ACCESS:    1618974 HIT:    1618974 MISS:          0 MSHR_MERGE:          0
cpu0->cpu0_L1I LOAD         ACCESS:    1618974 HIT:    1618974 MISS:          0 MSHR_MERGE:          0
cpu0->cpu0_L1I RFO          ACCESS:          0 HIT:          0 MISS:          0 MSHR_MERGE:          0
cpu0->cpu0_L1I PREFETCH     ACCESS:          0 HIT:          0 MISS:          0 MSHR_MERGE:          0
cpu0->cpu0_L1I WRITE        ACCESS:          0 HIT:          0 MISS:          0 MSHR_MERGE:          0
cpu0->cpu0_L1I TRANSLATION  ACCESS:          0 HIT:          0 MISS:          0 MSHR_MERGE:          0
cpu0->cpu0_L1I PREFETCH REQUESTED:          0 ISSUED:          0 USEFUL:          0 USELESS:          0
cpu0->cpu0_L1I AVERAGE MISS LATENCY: - cycles
cpu0->cpu0_L1D TOTAL        ACCESS:    2452866 HIT:    1508654 MISS:     944212 MSHR_MERGE:     173405
cpu0->cpu0_L1D LOAD         ACCESS:     626493 HIT:     370610 MISS:     255883 MSHR_MERGE:     140997
cpu0->cpu0_L1D RFO          ACCESS:          0 HIT:          0 MISS:          0 MSHR_MERGE:          0
cpu0->cpu0_L1D PREFETCH     ACCESS:          0 HIT:          0 MISS:          0 MSHR_MERGE:          0
cpu0->cpu0_L1D WRITE        ACCESS:    1812000 HIT:    1131760 MISS:     680240 MSHR_MERGE:      32408
cpu0->cpu0_L1D TRANSLATION  ACCESS:      14373 HIT:       6284 MISS:       8089 MSHR_MERGE:          0
cpu0->cpu0_L1D PREFETCH REQUESTED:          0 ISSUED:          0 USEFUL:          0 USELESS:          0
cpu0->cpu0_L1D AVERAGE MISS LATENCY: 313.6 cycles
cpu0->cpu0_ITLB TOTAL        ACCESS:    1207672 HIT:    1207672 MISS:          0 MSHR_MERGE:          0
cpu0->cpu0_ITLB LOAD         ACCESS:    1207672 HIT:    1207672 MISS:          0 MSHR_MERGE:          0
cpu0->cpu0_ITLB RFO          ACCESS:          0 HIT:          0 MISS:          0 MSHR_MERGE:          0
cpu0->cpu0_ITLB PREFETCH     ACCESS:          0 HIT:          0 MISS:          0 MSHR_MERGE:          0
cpu0->cpu0_ITLB WRITE        ACCESS:          0 HIT:          0 MISS:          0 MSHR_MERGE:          0
cpu0->cpu0_ITLB TRANSLATION  ACCESS:          0 HIT:          0 MISS:          0 MSHR_MERGE:          0
cpu0->cpu0_ITLB PREFETCH REQUESTED:          0 ISSUED:          0 USEFUL:          0 USELESS:          0
cpu0->cpu0_ITLB AVERAGE MISS LATENCY: - cycles
cpu0->cpu0_DTLB TOTAL        ACCESS:    2299583 HIT:    2254065 MISS:      45518 MSHR_MERGE:      32284
cpu0->cpu0_DTLB LOAD         ACCESS:    2299583 HIT:    2254065 MISS:      45518 MSHR_MERGE:      32284
cpu0->cpu0_DTLB RFO          ACCESS:          0 HIT:          0 MISS:          0 MSHR_MERGE:          0
cpu0->cpu0_DTLB PREFETCH     ACCESS:          0 HIT:          0 MISS:          0 MSHR_MERGE:          0
cpu0->cpu0_DTLB WRITE        ACCESS:          0 HIT:          0 MISS:          0 MSHR_MERGE:          0
cpu0->cpu0_DTLB TRANSLATION  ACCESS:          0 HIT:          0 MISS:          0 MSHR_MERGE:          0
cpu0->cpu0_DTLB PREFETCH REQUESTED:          0 ISSUED:          0 USEFUL:          0 USELESS:          0
cpu0->cpu0_DTLB AVERAGE MISS LATENCY: 585.7 cycles
cpu0->LLC TOTAL        ACCESS:     833657 HIT:     366084 MISS:     467573 MSHR_MERGE:          0
cpu0->LLC LOAD         ACCESS:     114883 HIT:          4 MISS:     114879 MSHR_MERGE:          0
cpu0->LLC RFO          ACCESS:     355397 HIT:      10795 MISS:     344602 MSHR_MERGE:          0
cpu0->LLC PREFETCH     ACCESS:          0 HIT:          0 MISS:          0 MSHR_MERGE:          0
cpu0->LLC WRITE        ACCESS:     355289 HIT:     355285 MISS:          4 MSHR_MERGE:          0
cpu0->LLC TRANSLATION  ACCESS:       8088 HIT:          0 MISS:       8088 MSHR_MERGE:          0
cpu0->LLC PREFETCH REQUESTED:          0 ISSUED:          0 USEFUL:          0 USELESS:          0
cpu0->LLC AVERAGE MISS LATENCY: 484.7 cycles

DRAM Statistics

Channel 0 RQ ROW_BUFFER_HIT:      24832
  ROW_BUFFER_MISS:     442737
  AVG DBUS CONGESTED CYCLE: 7.256
Channel 0 WQ ROW_BUFFER_HIT:      54538
  ROW_BUFFER_MISS:     289992
  FULL:          0
Channel 0 REFRESHES ISSUED:       1846
