[VMEM] WARNING: physical memory size is smaller than virtual memory size.

*** ChampSim Multicore Out-of-Order Simulator ***
Warmup Instructions: 2000000
Simulation Instructions: 10000000
Number of CPUs: 1
Page size: 4096

Off-chip DRAM Size: 16 GiB Channels: 1 Width: 64-bit Data Rate: 3205 MT/s
Warmup finished CPU 0 instructions: 2000000 cycles: 1508483 cumulative IPC: 1.326 (Simulation time: 00 hr 00 min 13 sec)
Warmup complete CPU 0 instructions: 2000000 cycles: 1508483 cumulative IPC: 1.326 (Simulation time: 00 hr 00 min 13 sec)
Heartbeat CPU 0 instructions: 10000004 cycles: 34653483 heartbeat IPC: 0.2886 cumulative IPC: 0.2414 (Simulation time: 00 hr 02 min 43 sec)
Simulation finished CPU 0 instructions: 10000002 cycles: 41247241 cumulative IPC: 0.2424 (Simulation time: 00 hr 03 min 19 sec)
Simulation complete CPU 0 instructions: 10000002 cycles: 41247241 cumulative IPC: 0.2424 (Simulation time: 00 hr 03 min 19 sec)

ChampSim completed all CPUs

=== Simulation ===
CPU 0 runs traces/620.omnetpp_s-141B.champsimtrace.xz

Region of Interest Statistics

CPU 0 cumulative IPC: 0.2424 instructions: 10000002 cycles: 41247241
CPU 0 Branch Prediction Accuracy: 92.83% MPKI: 15.07 Average ROB Occupancy at Mispredict: 41.26
Branch type MPKI
BRANCH_DIRECT_JUMP: 0.8198
BRANCH_INDIRECT: 0.366
BRANCH_CONDITIONAL: 12.58
BRANCH_DIRECT_CALL: 0.004
BRANCH_INDIRECT_CALL: 0.8598
BRANCH_RETURN: 0.4394

cpu0->cpu0_STLB TOTAL        ACCESS:     225420 HIT:     176499 MISS:      48921 MSHR_MERGE:          0
cpu0->cpu0_STLB LOAD         ACCESS:     225420 HIT:     176499 MISS:      48921 MSHR_MERGE:          0
cpu0->cpu0_STLB RFO          ACCESS:          0 HIT:          0 MISS:          0 MSHR_MERGE:          0
cpu0->cpu0_STLB PREFETCH     ACCESS:          0 HIT:          0 MISS:          0 MSHR_MERGE:          0
cpu0->cpu0_STLB WRITE        ACCESS:          0 HIT:          0 MISS:          0 MSHR_MERGE:          0
cpu0->cpu0_STLB TRANSLATION  ACCESS:          0 HIT:          0 MISS:          0 MSHR_MERGE:          0
cpu0->cpu0_STLB PREFETCH REQUESTED:          0 ISSUED:          0 USEFUL:          0 USELESS:          0
cpu0->cpu0_STLB AVERAGE MISS LATENCY: 427.9 cycles
cpu0->cpu0_L2C TOTAL        ACCESS:     407265 HIT:     179000 MISS:     228265 MSHR_MERGE:          0
cpu0->cpu0_L2C LOAD         ACCESS:     178359 HIT:      51856 MISS:     126503 MSHR_MERGE:          0
cpu0->cpu0_L2C RFO          ACCESS:      23673 HIT:       4617 MISS:      19056 MSHR_MERGE:          0
cpu0->cpu0_L2C PREFETCH     ACCESS:          0 HIT:          0 MISS:          0 MSHR_MERGE:          0
cpu0->cpu0_L2C WRITE        ACCESS:      96256 HIT:      96039 MISS:        217 MSHR_MERGE:          0
cpu0->cpu0_L2C TRANSLATION  ACCESS:     108977 HIT:      26488 MISS:      82489 MSHR_MERGE:          0
cpu0->cpu0_L2C PREFETCH REQUESTED:          0 ISSUED:          0 USEFUL:          0 USELESS:          0
cpu0->cpu0_L2C AVERAGE MISS LATENCY: 152.1 cycles
cpu0->cpu0_L1I TOTAL        ACCESS:    1328751 HIT:    1321317 MISS:       7434 MSHR_MERGE:       1704
cpu0->cpu0_L1I LOAD         ACCESS:    1328751 HIT:    1321317 MISS:       7434 MSHR_MERGE:       1704
cpu0->cpu0_L1I RFO          ACCESS:          0 HIT:          0 MISS:          0 MSHR_MERGE:          0
cpu0->cpu0_L1I PREFETCH     ACCESS:          0 HIT:          0 MISS:          0 MSHR_MERGE:          0
cpu0->cpu0_L1I WRITE        ACCESS:          0 HIT:          0 MISS:          0 MSHR_MERGE:          0
cpu0->cpu0_L1I TRANSLATION  ACCESS:          0 HIT:          0 MISS:          0 MSHR_MERGE:          0
cpu0->cpu0_L1I PREFETCH REQUESTED:          0 ISSUED:          0 USEFUL:          0 USELESS:          0
cpu0->cpu0_L1I AVERAGE MISS LATENCY: 21.08 cycles
cpu0->cpu0_L1D TOTAL        ACCESS:    4102325 HIT:    3696476 MISS:     405849 MSHR_MERGE:     100570
cpu0->cpu0_L1D LOAD         ACCESS:    2163367 HIT:    1942814 MISS:     220553 MSHR_MERGE:      47924
cpu0->cpu0_L1D RFO          ACCESS:          0 HIT:          0 MISS:          0 MSHR_MERGE:          0
cpu0->cpu0_L1D PREFETCH     ACCESS:          0 HIT:          0 MISS:          0 MSHR_MERGE:          0
cpu0->cpu0_L1D WRITE        ACCESS:    1821009 HIT:    1744936 MISS:      76073 MSHR_MERGE:      52400
cpu0->cpu0_L1D TRANSLATION  ACCESS:     117949 HIT:       8726 MISS:     109223 MSHR_MERGE:        246
cpu0->cpu0_L1D PREFETCH REQUESTED:          0 ISSUED:          0 USEFUL:          0 USELESS:          0
cpu0->cpu0_L1D AVERAGE MISS LATENCY: 122.2 cycles
cpu0->cpu0_ITLB TOTAL        ACCESS:    1175984 HIT:    1146256 MISS:      29728 MSHR_MERGE:      14168
cpu0->cpu0_ITLB LOAD         ACCESS:    1175984 HIT:    1146256 MISS:      29728 MSHR_MERGE:      14168
cpu0->cpu0_ITLB RFO          ACCESS:          0 HIT:          0 MISS:          0 MSHR_MERGE:          0
cpu0->cpu0_ITLB PREFETCH     ACCESS:          0 HIT:          0 MISS:          0 MSHR_MERGE:          0
cpu0->cpu0_ITLB WRITE        ACCESS:          0 HIT:          0 MISS:          0 MSHR_MERGE:          0
cpu0->cpu0_ITLB TRANSLATION  ACCESS:          0 HIT:          0 MISS:          0 MSHR_MERGE:          0
cpu0->cpu0_ITLB PREFETCH REQUESTED:          0 ISSUED:          0 USEFUL:          0 USELESS:          0
cpu0->cpu0_ITLB AVERAGE MISS LATENCY: 8.054 cycles
cpu0->cpu0_DTLB TOTAL        ACCESS:    3794766 HIT:    3550455 MISS:     244311 MSHR_MERGE:      34452
cpu0->cpu0_DTLB LOAD         ACCESS:    3794766 HIT:    3550455 MISS:     244311 MSHR_MERGE:      34452
cpu0->cpu0_DTLB RFO          ACCESS:          0 HIT:          0 MISS:          0 MSHR_MERGE:          0
cpu0->cpu0_DTLB PREFETCH     ACCESS:          0 HIT:          0 MISS:          0 MSHR_MERGE:          0
cpu0->cpu0_DTLB WRITE        ACCESS:          0 HIT:          0 MISS:          0 MSHR_MERGE:          0
cpu0->cpu0_DTLB TRANSLATION  ACCESS:          0 HIT:          0 MISS:          0 MSHR_MERGE:          0
cpu0->cpu0_DTLB PREFETCH REQUESTED:          0 ISSUED:          0 USEFUL:          0 USELESS:          0
cpu0->cpu0_DTLB AVERAGE MISS LATENCY: 104.8 cycles
cpu0->LLC TOTAL        ACCESS:     300954 HIT:     134381 MISS:     166573 MSHR_MERGE:          0
cpu0->LLC LOAD         ACCESS:     126503 HIT:      29705 MISS:      96798 MSHR_MERGE:          0
cpu0->LLC RFO          ACCESS:      19056 HIT:       7005 MISS:      12051 MSHR_MERGE:          0
cpu0->LLC PREFETCH     ACCESS:          0 HIT:          0 MISS:          0 MSHR_MERGE:          0
cpu0->LLC WRITE        ACCESS:      72906 HIT:      72621 MISS:        285 MSHR_MERGE:          0
cpu0->LLC TRANSLATION  ACCESS:      82489 HIT:      25050 MISS:      57439 MSHR_MERGE:          0
cpu0->LLC PREFETCH REQUESTED:          0 ISSUED:          0 USEFUL:          0 USELESS:          0
cpu0->LLC AVERAGE MISS LATENCY: 186.9 cycles

DRAM Statistics

Channel 0 RQ ROW_BUFFER_HIT:        541
  ROW_BUFFER_MISS:     165745
  AVG DBUS CONGESTED CYCLE: 20.4
Channel 0 WQ ROW_BUFFER_HIT:      15176
  ROW_BUFFER_MISS:      36798
  FULL:          0
Channel 0 REFRESHES ISSUED:       3437
