[VMEM] WARNING: physical memory size is smaller than virtual memory size.

*** ChampSim Multicore Out-of-Order Simulator ***
Warmup Instructions: 2000000
Simulation Instructions: 10000000
Number of CPUs: 1
Page size: 4096

Off-chip DRAM Size: 16 GiB Channels: 1 Width: 64-bit Data Rate: 3205 MT/s
Warmup finished CPU 0 instructions: 2000003 cycles: 512734 cumulative IPC: 3.901 (Simulation time: 00 hr 00 min 04 sec)
Warmup complete CPU 0 instructions: 2000003 cycles: 512734 cumulative IPC: 3.901 (Simulation time: 00 hr 00 min 04 sec)
Heartbeat CPU 0 instructions: 10000002 cycles: 3778558 heartbeat IPC: 2.647 cumulative IPC: 2.45 (Simulation time: 00 hr 00 min 29 sec)
Simulation finished CPU 0 instructions: 10000000 cycles: 3994247 cumulative IPC: 2.504 (Simulation time: 00 hr 00 min 34 sec)
Simulation complete CPU 0 instructions: 10000000 cycles: 3994247 cumulative IPC: 2.504 (Simulation time: 00 hr 00 min 34 sec)

ChampSim completed all CPUs

=== Simulation ===
CPU 0 runs traces/625.x264_s-12B.champsimtrace.xz

Region of Interest Statistics

CPU 0 cumulative IPC: 2.504 instructions: 10000000 cycles: 3994247
CPU 0 Branch Prediction Accuracy: 96.33% MPKI: 0.9206 Average ROB Occupancy at Mispredict: 238.3
Branch type MPKI
BRANCH_DIRECT_JUMP: 0.0017
BRANCH_INDIRECT: 0.0004
BRANCH_CONDITIONAL: 0.9057
BRANCH_DIRECT_CALL: 0.0007
BRANCH_INDIRECT_CALL: 0.0092
BRANCH_RETURN: 0.0029

cpu0->cpu0_STLB TOTAL        ACCESS:        884 HIT:        758 MISS:        126 MSHR_MERGE:          0
cpu0->cpu0_STLB LOAD         ACCESS:        884 HIT:        758 MISS:        126 MSHR_MERGE:          0
cpu0->cpu0_STLB RFO          ACCESS:          0 HIT:          0 MISS:          0 MSHR_MERGE:          0
cpu0->cpu0_STLB PREFETCH     ACCESS:          0 HIT:          0 MISS:          0 MSHR_MERGE:          0
cpu0->cpu0_STLB WRITE        ACCESS:          0 HIT:          0 MISS:          0 MSHR_MERGE:          0
cpu0->cpu0_STLB TRANSLATION  ACCESS:          0 HIT:          0 MISS:          0 MSHR_MERGE:          0
cpu0->cpu0_STLB PREFETCH REQUESTED:          0 ISSUED:          0 USEFUL:          0 USELESS:          0
cpu0->cpu0_STLB AVERAGE MISS LATENCY: 669.1 cycles
cpu0->cpu0_L2C TOTAL        ACCESS:       8381 HIT:       1835 MISS:       6546 MSHR_MERGE:          0
cpu0->cpu0_L2C LOAD         ACCESS:       8101 HIT:       1812 MISS:       6289 MSHR_MERGE:          0
cpu0->cpu0_L2C RFO          ACCESS:         80 HIT:          0 MISS:         80 MSHR_MERGE:          0
cpu0->cpu0_L2C PREFETCH     ACCESS:          0 HIT:          0 MISS:          0 MSHR_MERGE:          0
cpu0->cpu0_L2C WRITE        ACCESS:         30 HIT:         23 MISS:          7 MSHR_MERGE:          0
cpu0->cpu0_L2C TRANSLATION  ACCESS:        170 HIT:          0 MISS:        170 MSHR_MERGE:          0
cpu0->cpu0_L2C PREFETCH REQUESTED:          0 ISSUED:          0 USEFUL:          0 USELESS:          0
cpu0->cpu0_L2C AVERAGE MISS LATENCY: 161.2 cycles
cpu0->cpu0_L1I TOTAL        ACCESS:    1278325 HIT:    1278097 MISS:        228 MSHR_MERGE:         69
cpu0->cpu0_L1I LOAD         ACCESS:    1278325 HIT:    1278097 MISS:        228 MSHR_MERGE:         69
cpu0->cpu0_L1I RFO          ACCESS:          0 HIT:          0 MISS:          0 MSHR_MERGE:          0
cpu0->cpu0_L1I PREFETCH     ACCESS:          0 HIT:          0 MISS:          0 MSHR_MERGE:          0
cpu0->cpu0_L1I WRITE        ACCESS:          0 HIT:          0 MISS:          0 MSHR_MERGE:          0
cpu0->cpu0_L1I TRANSLATION  ACCESS:          0 HIT:          0 MISS:          0 MSHR_MERGE:          0
cpu0->cpu0_L1I PREFETCH REQUESTED:          0 ISSUED:          0 USEFUL:          0 USELESS:          0
cpu0->cpu0_L1I AVERAGE MISS LATENCY: 218.4 cycles
cpu0->cpu0_L1D TOTAL        ACCESS:    1912124 HIT:    1880627 MISS:      31497 MSHR_MERGE:      23305
cpu0->cpu0_L1D LOAD         ACCESS:    1264184 HIT:    1233114 MISS:      31070 MSHR_MERGE:      23128
cpu0->cpu0_L1D RFO          ACCESS:          0 HIT:          0 MISS:          0 MSHR_MERGE:          0
cpu0->cpu0_L1D PREFETCH     ACCESS:          0 HIT:          0 MISS:          0 MSHR_MERGE:          0
cpu0->cpu0_L1D WRITE        ACCESS:     647688 HIT:     647431 MISS:        257 MSHR_MERGE:        177
cpu0->cpu0_L1D TRANSLATION  ACCESS:        252 HIT:         82 MISS:        170 MSHR_MERGE:          0
cpu0->cpu0_L1D PREFETCH REQUESTED:          0 ISSUED:          0 USEFUL:          0 USELESS:          0
cpu0->cpu0_L1D AVERAGE MISS LATENCY: 133.5 cycles
cpu0->cpu0_ITLB TOTAL        ACCESS:    1125460 HIT:    1125422 MISS:         38 MSHR_MERGE:         28
cpu0->cpu0_ITLB LOAD         ACCESS:    1125460 HIT:    1125422 MISS:         38 MSHR_MERGE:         28
cpu0->cpu0_ITLB RFO          ACCESS:          0 HIT:          0 MISS:          0 MSHR_MERGE:          0
cpu0->cpu0_ITLB PREFETCH     ACCESS:          0 HIT:          0 MISS:          0 MSHR_MERGE:          0
cpu0->cpu0_ITLB WRITE        ACCESS:          0 HIT:          0 MISS:          0 MSHR_MERGE:          0
cpu0->cpu0_ITLB TRANSLATION  ACCESS:          0 HIT:          0 MISS:          0 MSHR_MERGE:          0
cpu0->cpu0_ITLB PREFETCH REQUESTED:          0 ISSUED:          0 USEFUL:          0 USELESS:          0
cpu0->cpu0_ITLB AVERAGE MISS LATENCY: 783 cycles
cpu0->cpu0_DTLB TOTAL        ACCESS:    1782485 HIT:    1780777 MISS:       1708 MSHR_MERGE:        834
cpu0->cpu0_DTLB LOAD         ACCESS:    1782485 HIT:    1780777 MISS:       1708 MSHR_MERGE:        834
cpu0->cpu0_DTLB RFO          ACCESS:          0 HIT:          0 MISS:          0 MSHR_MERGE:          0
cpu0->cpu0_DTLB PREFETCH     ACCESS:          0 HIT:          0 MISS:          0 MSHR_MERGE:          0
cpu0->cpu0_DTLB WRITE        ACCESS:          0 HIT:          0 MISS:          0 MSHR_MERGE:          0
cpu0->cpu0_DTLB TRANSLATION  ACCESS:          0 HIT:          0 MISS:          0 MSHR_MERGE:          0
cpu0->cpu0_DTLB PREFETCH REQUESTED:          0 ISSUED:          0 USEFUL:          0 USELESS:          0
cpu0->cpu0_DTLB AVERAGE MISS LATENCY: 92.7 cycles
cpu0->LLC TOTAL        ACCESS:       6539 HIT:        654 MISS:       5885 MSHR_MERGE:          0
cpu0->LLC LOAD         ACCESS:       6289 HIT:        654 MISS:       5635 MSHR_MERGE:          0
cpu0->LLC RFO          ACCESS:         80 HIT:          0 MISS:         80 MSHR_MERGE:          0
cpu0->LLC PREFETCH     ACCESS:          0 HIT:          0 MISS:          0 MSHR_MERGE:          0
cpu0->LLC WRITE        ACCESS:          0 HIT:          0 MISS:          0 MSHR_MERGE:          0
cpu0->LLC TRANSLATION  ACCESS:        170 HIT:          0 MISS:        170 MSHR_MERGE:          0
cpu0->LLC PREFETCH REQUESTED:          0 ISSUED:          0 USEFUL:          0 USELESS:          0
cpu0->LLC AVERAGE MISS LATENCY: 161.6 cycles

DRAM Statistics

Channel 0 RQ ROW_BUFFER_HIT:        365
  ROW_BUFFER_MISS:       5520
  AVG DBUS CONGESTED CYCLE: 2.499
Channel 0 WQ ROW_BUFFER_HIT:          0
  ROW_BUFFER_MISS:          0
  FULL:          0
Channel 0 REFRESHES ISSUED:        333
