[VMEM] WARNING: physical memory size is smaller than virtual memory size.

*** ChampSim Multicore Out-of-Order Simulator ***
Warmup Instructions: 2000000
Simulation Instructions: 10000000
Number of CPUs: 1
Page size: 4096

Off-chip DRAM Size: 16 GiB Channels: 1 Width: 64-bit Data Rate: 3205 MT/s
Warmup finished CPU 0 instructions: 2000000 cycles: 612569 cumulative IPC: 3.265 (Simulation time: 00 hr 00 min 05 sec)
Warmup complete CPU 0 instructions: 2000000 cycles: 612569 cumulative IPC: 3.265 (Simulation time: 00 hr 00 min 05 sec)
Heartbeat CPU 0 instructions: 10000000 cycles: 8996231 heartbeat IPC: 1.112 cumulative IPC: 0.9542 (Simulation time: 00 hr 00 min 54 sec)
Simulation finished CPU 0 instructions: 10000000 cycles: 9655214 cumulative IPC: 1.036 (Simulation time: 00 hr 01 min 03 sec)
Simulation complete CPU 0 instructions: 10000000 cycles: 9655214 cumulative IPC: 1.036 (Simulation time: 00 hr 01 min 03 sec)

ChampSim completed all CPUs

=== Simulation ===
CPU 0 runs traces/627.cam4_s-490B.champsimtrace.xz

Region of Interest Statistics

CPU 0 cumulative IPC: 1.036 instructions: 10000000 cycles: 9655214
CPU 0 Branch Prediction Accuracy: 94.48% MPKI: 5.245 Average ROB Occupancy at Mispredict: 65.37
Branch type MPKI
BRANCH_DIRECT_JUMP: 0.0063
BRANCH_INDIRECT: 0.0001
BRANCH_CONDITIONAL: 5.222
BRANCH_DIRECT_CALL: 0.0084
BRANCH_INDIRECT_CALL: 0
BRANCH_RETURN: 0.0082

cpu0->cpu0_STLB TOTAL        ACCESS:       3293 HIT:       2716 MISS:        577 MSHR_MERGE:          0
cpu0->cpu0_STLB LOAD         ACCESS:       3293 HIT:       2716 MISS:        577 MSHR_MERGE:          0
cpu0->cpu0_STLB RFO          ACCESS:          0 HIT:          0 MISS:          0 MSHR_MERGE:          0
cpu0->cpu0_STLB PREFETCH     ACCESS:          0 HIT:          0 MISS:          0 MSHR_MERGE:          0
cpu0->cpu0_STLB WRITE        ACCESS:          0 HIT:          0 MISS:          0 MSHR_MERGE:          0
cpu0->cpu0_STLB TRANSLATION  ACCESS:          0 HIT:          0 MISS:          0 MSHR_MERGE:          0
cpu0->cpu0_STLB PREFETCH REQUESTED:          0 ISSUED:          0 USEFUL:          0 USELESS:          0
cpu0->cpu0_STLB AVERAGE MISS LATENCY: 714.6 cycles
cpu0->cpu0_L2C TOTAL        ACCESS:     267289 HIT:     130926 MISS:     136363 MSHR_MERGE:          0
cpu0->cpu0_L2C LOAD         ACCESS:     133289 HIT:      52144 MISS:      81145 MSHR_MERGE:          0
cpu0->cpu0_L2C RFO          ACCESS:      54612 HIT:        248 MISS:      54364 MSHR_MERGE:          0
cpu0->cpu0_L2C PREFETCH     ACCESS:          0 HIT:          0 MISS:          0 MSHR_MERGE:          0
cpu0->cpu0_L2C WRITE        ACCESS:      78651 HIT:      78532 MISS:        119 MSHR_MERGE:          0
cpu0->cpu0_L2C TRANSLATION  ACCESS:        737 HIT:          2 MISS:        735 MSHR_MERGE:          0
cpu0->cpu0_L2C PREFETCH REQUESTED:          0 ISSUED:          0 USEFUL:          0 USELESS:          0
cpu0->cpu0_L2C AVERAGE MISS LATENCY: 116 cycles
cpu0->cpu0_L1I TOTAL        ACCESS:     727564 HIT:     727008 MISS:        556 MSHR_MERGE:        197
cpu0->cpu0_L1I LOAD         ACCESS:     727564 HIT:     727008 MISS:        556 MSHR_MERGE:        197
cpu0->cpu0_L1I RFO          ACCESS:          0 HIT:          0 MISS:          0 MSHR_MERGE:          0
cpu0->cpu0_L1I PREFETCH     ACCESS:          0 HIT:          0 MISS:          0 MSHR_MERGE:          0
cpu0->cpu0_L1I WRITE        ACCESS:          0 HIT:          0 MISS:          0 MSHR_MERGE:          0
cpu0->cpu0_L1I TRANSLATION  ACCESS:          0 HIT:          0 MISS:          0 MSHR_MERGE:          0
cpu0->cpu0_L1I PREFETCH REQUESTED:          0 ISSUED:          0 USEFUL:          0 USELESS:          0
cpu0->cpu0_L1I AVERAGE MISS LATENCY: 222.8 cycles
cpu0->cpu0_L1D TOTAL        ACCESS:    2031349 HIT:    1459002 MISS:     572347 MSHR_MERGE:     384068
cpu0->cpu0_L1D LOAD         ACCESS:    1369698 HIT:    1072579 MISS:     297119 MSHR_MERGE:     164189
cpu0->cpu0_L1D RFO          ACCESS:          0 HIT:          0 MISS:          0 MSHR_MERGE:          0
cpu0->cpu0_L1D PREFETCH     ACCESS:          0 HIT:          0 MISS:          0 MSHR_MERGE:          0
cpu0->cpu0_L1D WRITE        ACCESS:     660488 HIT:     386000 MISS:     274488 MSHR_MERGE:     219876
cpu0->cpu0_L1D TRANSLATION  ACCESS:       1163 HIT:        423 MISS:        740 MSHR_MERGE:          3
cpu0->cpu0_L1D PREFETCH REQUESTED:          0 ISSUED:          0 USEFUL:          0 USELESS:          0
cpu0->cpu0_L1D AVERAGE MISS LATENCY: 92.37 cycles
cpu0->cpu0_ITLB TOTAL        ACCESS:     662151 HIT:     662140 MISS:         11 MSHR_MERGE:          7
cpu0->cpu0_ITLB LOAD         ACCESS:     662151 HIT:     662140 MISS:         11 MSHR_MERGE:          7
cpu0->cpu0_ITLB RFO          ACCESS:          0 HIT:          0 MISS:          0 MSHR_MERGE:          0
cpu0->cpu0_ITLB PREFETCH     ACCESS:          0 HIT:          0 MISS:          0 MSHR_MERGE:          0
cpu0->cpu0_ITLB WRITE        ACCESS:          0 HIT:          0 MISS:          0 MSHR_MERGE:          0
cpu0->cpu0_ITLB TRANSLATION  ACCESS:          0 HIT:          0 MISS:          0 MSHR_MERGE:          0
cpu0->cpu0_ITLB PREFETCH REQUESTED:          0 ISSUED:          0 USEFUL:          0 USELESS:          0
cpu0->cpu0_ITLB AVERAGE MISS LATENCY: 729.5 cycles
cpu0->cpu0_DTLB TOTAL        ACCESS:    1976342 HIT:    1968237 MISS:       8105 MSHR_MERGE:       4816
cpu0->cpu0_DTLB LOAD         ACCESS:    1976342 HIT:    1968237 MISS:       8105 MSHR_MERGE:       4816
cpu0->cpu0_DTLB RFO          ACCESS:          0 HIT:          0 MISS:          0 MSHR_MERGE:          0
cpu0->cpu0_DTLB PREFETCH     ACCESS:          0 HIT:          0 MISS:          0 MSHR_MERGE:          0
cpu0->cpu0_DTLB WRITE        ACCESS:          0 HIT:          0 MISS:          0 MSHR_MERGE:          0
cpu0->cpu0_DTLB TRANSLATION  ACCESS:          0 HIT:          0 MISS:          0 MSHR_MERGE:          0
cpu0->cpu0_DTLB PREFETCH REQUESTED:          0 ISSUED:          0 USEFUL:          0 USELESS:          0
cpu0->cpu0_DTLB AVERAGE MISS LATENCY: 129.7 cycles
cpu0->LLC TOTAL        ACCESS:     205601 HIT:     147212 MISS:      58389 MSHR_MERGE:          0
cpu0->LLC LOAD         ACCESS:      81145 HIT:      52702 MISS:      28443 MSHR_MERGE:          0
cpu0->LLC RFO          ACCESS:      54364 HIT:      25149 MISS:      29215 MSHR_MERGE:          0
cpu0->LLC PREFETCH     ACCESS:          0 HIT:          0 MISS:          0 MSHR_MERGE:          0
cpu0->LLC WRITE        ACCESS:      69357 HIT:      69357 MISS:          0 MSHR_MERGE:          0
cpu0->LLC TRANSLATION  ACCESS:        735 HIT:          4 MISS:        731 MSHR_MERGE:          0
cpu0->LLC PREFETCH REQUESTED:          0 ISSUED:          0 USEFUL:          0 USELESS:          0
cpu0->LLC AVERAGE MISS LATENCY: 234.8 cycles

DRAM Statistics

Channel 0 RQ ROW_BUFFER_HIT:       4418
  ROW_BUFFER_MISS:      53928
  AVG DBUS CONGESTED CYCLE: 10.89
Channel 0 WQ ROW_BUFFER_HIT:       7426
  ROW_BUFFER_MISS:      22469
  FULL:          0
Channel 0 REFRESHES ISSUED:        804
