[VMEM] WARNING: physical memory size is smaller than virtual memory size.

*** ChampSim Multicore Out-of-Order Simulator ***
Warmup Instructions: 2000000
Simulation Instructions: 10000000
Number of CPUs: 1
Page size: 4096

Off-chip DRAM Size: 16 GiB Channels: 1 Width: 64-bit Data Rate: 3205 MT/s
Warmup finished CPU 0 instructions: 2000001 cycles: 647399 cumulative IPC: 3.089 (Simulation time: 00 hr 00 min 05 sec)
Warmup complete CPU 0 instructions: 2000001 cycles: 647399 cumulative IPC: 3.089 (Simulation time: 00 hr 00 min 05 sec)
Heartbeat CPU 0 instructions: 10000002 cycles: 7104770 heartbeat IPC: 1.408 cumulative IPC: 1.239 (Simulation time: 00 hr 00 min 44 sec)
Simulation finished CPU 0 instructions: 10000002 cycles: 7967157 cumulative IPC: 1.255 (Simulation time: 00 hr 00 min 53 sec)
Simulation complete CPU 0 instructions: 10000002 cycles: 7967157 cumulative IPC: 1.255 (Simulation time: 00 hr 00 min 53 sec)

ChampSim completed all CPUs

=== Simulation ===
CPU 0 runs traces/628.pop2_s-17B.champsimtrace.xz

Region of Interest Statistics

CPU 0 cumulative IPC: 1.255 instructions: 10000002 cycles: 7967157
CPU 0 Branch Prediction Accuracy: 96.97% MPKI: 3.465 Average ROB Occupancy at Mispredict: 104.6
Branch type MPKI
BRANCH_DIRECT_JUMP: 0.0512
BRANCH_INDIRECT: 0.0016
BRANCH_CONDITIONAL: 3.412
BRANCH_DIRECT_CALL: 0
BRANCH_INDIRECT_CALL: 0
BRANCH_RETURN: 0.0001

cpu0->cpu0_STLB TOTAL        ACCESS:       8681 HIT:       8189 MISS:        492 MSHR_MERGE:          0
cpu0->cpu0_STLB LOAD         ACCESS:       8681 HIT:       8189 MISS:        492 MSHR_MERGE:          0
cpu0->cpu0_STLB RFO          ACCESS:          0 HIT:          0 MISS:          0 MSHR_MERGE:          0
cpu0->cpu0_STLB PREFETCH     ACCESS:          0 HIT:          0 MISS:          0 MSHR_MERGE:          0
cpu0->cpu0_STLB WRITE        ACCESS:          0 HIT:          0 MISS:          0 MSHR_MERGE:          0
cpu0->cpu0_STLB TRANSLATION  ACCESS:          0 HIT:          0 MISS:          0 MSHR_MERGE:          0
cpu0->cpu0_STLB PREFETCH REQUESTED:          0 ISSUED:          0 USEFUL:          0 USELESS:          0
cpu0->cpu0_STLB AVERAGE MISS LATENCY: 746.5 cycles
cpu0->cpu0_L2C TOTAL        ACCESS:     300890 HIT:     208561 MISS:      92329 MSHR_MERGE:          0
cpu0->cpu0_L2C LOAD         ACCESS:     164078 HIT:      94995 MISS:      69083 MSHR_MERGE:          0
cpu0->cpu0_L2C RFO          ACCESS:      54529 HIT:      32286 MISS:      22243 MSHR_MERGE:          0
cpu0->cpu0_L2C PREFETCH     ACCESS:          0 HIT:          0 MISS:          0 MSHR_MERGE:          0
cpu0->cpu0_L2C WRITE        ACCESS:      81247 HIT:      81238 MISS:          9 MSHR_MERGE:          0
cpu0->cpu0_L2C TRANSLATION  ACCESS:       1036 HIT:         42 MISS:        994 MSHR_MERGE:          0
cpu0->cpu0_L2C PREFETCH REQUESTED:          0 ISSUED:          0 USEFUL:          0 USELESS:          0
cpu0->cpu0_L2C AVERAGE MISS LATENCY: 77.43 cycles
cpu0->cpu0_L1I TOTAL        ACCESS:     734017 HIT:     712269 MISS:      21748 MSHR_MERGE:       9951
cpu0->cpu0_L1I LOAD         ACCESS:     734017 HIT:     712269 MISS:      21748 MSHR_MERGE:       9951
cpu0->cpu0_L1I RFO          ACCESS:          0 HIT:          0 MISS:          0 MSHR_MERGE:          0
cpu0->cpu0_L1I PREFETCH     ACCESS:          0 HIT:          0 MISS:          0 MSHR_MERGE:          0
cpu0->cpu0_L1I WRITE        ACCESS:          0 HIT:          0 MISS:          0 MSHR_MERGE:          0
cpu0->cpu0_L1I TRANSLATION  ACCESS:          0 HIT:          0 MISS:          0 MSHR_MERGE:          0
cpu0->cpu0_L1I PREFETCH REQUESTED:          0 ISSUED:          0 USEFUL:          0 USELESS:          0
cpu0->cpu0_L1I AVERAGE MISS LATENCY: 21.46 cycles
cpu0->cpu0_L1D TOTAL        ACCESS:    2612403 HIT:    2141784 MISS:     470619 MSHR_MERGE:     262770
cpu0->cpu0_L1D LOAD         ACCESS:    1854437 HIT:    1566221 MISS:     288216 MSHR_MERGE:     135932
cpu0->cpu0_L1D RFO          ACCESS:          0 HIT:          0 MISS:          0 MSHR_MERGE:          0
cpu0->cpu0_L1D PREFETCH     ACCESS:          0 HIT:          0 MISS:          0 MSHR_MERGE:          0
cpu0->cpu0_L1D WRITE        ACCESS:     756821 HIT:     575483 MISS:     181338 MSHR_MERGE:     126809
cpu0->cpu0_L1D TRANSLATION  ACCESS:       1145 HIT:         80 MISS:       1065 MSHR_MERGE:         29
cpu0->cpu0_L1D PREFETCH REQUESTED:          0 ISSUED:          0 USEFUL:          0 USELESS:          0
cpu0->cpu0_L1D AVERAGE MISS LATENCY: 42.08 cycles
cpu0->cpu0_ITLB TOTAL        ACCESS:     596565 HIT:     595341 MISS:       1224 MSHR_MERGE:        731
cpu0->cpu0_ITLB LOAD         ACCESS:     596565 HIT:     595341 MISS:       1224 MSHR_MERGE:        731
cpu0->cpu0_ITLB RFO          ACCESS:          0 HIT:          0 MISS:          0 MSHR_MERGE:          0
cpu0->cpu0_ITLB PREFETCH     ACCESS:          0 HIT:          0 MISS:          0 MSHR_MERGE:          0
cpu0->cpu0_ITLB WRITE        ACCESS:          0 HIT:          0 MISS:          0 MSHR_MERGE:          0
cpu0->cpu0_ITLB TRANSLATION  ACCESS:          0 HIT:          0 MISS:          0 MSHR_MERGE:          0
cpu0->cpu0_ITLB PREFETCH REQUESTED:          0 ISSUED:          0 USEFUL:          0 USELESS:          0
cpu0->cpu0_ITLB AVERAGE MISS LATENCY: 5 cycles
cpu0->cpu0_DTLB TOTAL        ACCESS:    2514886 HIT:    2501103 MISS:      13783 MSHR_MERGE:       5595
cpu0->cpu0_DTLB LOAD         ACCESS:    2514886 HIT:    2501103 MISS:      13783 MSHR_MERGE:       5595
cpu0->cpu0_DTLB RFO          ACCESS:          0 HIT:          0 MISS:          0 MSHR_MERGE:          0
cpu0->cpu0_DTLB PREFETCH     ACCESS:          0 HIT:          0 MISS:          0 MSHR_MERGE:          0
cpu0->cpu0_DTLB WRITE        ACCESS:          0 HIT:          0 MISS:          0 MSHR_MERGE:          0
cpu0->cpu0_DTLB TRANSLATION  ACCESS:          0 HIT:          0 MISS:          0 MSHR_MERGE:          0
cpu0->cpu0_DTLB PREFETCH REQUESTED:          0 ISSUED:          0 USEFUL:          0 USELESS:          0
cpu0->cpu0_DTLB AVERAGE MISS LATENCY: 49.92 cycles
cpu0->LLC TOTAL        ACCESS:     127369 HIT:      96776 MISS:      30593 MSHR_MERGE:          0
cpu0->LLC LOAD         ACCESS:      69083 HIT:      41407 MISS:      27676 MSHR_MERGE:          0
cpu0->LLC RFO          ACCESS:      22243 HIT:      20079 MISS:       2164 MSHR_MERGE:          0
cpu0->LLC PREFETCH     ACCESS:          0 HIT:          0 MISS:          0 MSHR_MERGE:          0
cpu0->LLC WRITE        ACCESS:      35049 HIT:      35018 MISS:         31 MSHR_MERGE:          0
cpu0->LLC TRANSLATION  ACCESS:        994 HIT:        272 MISS:        722 MSHR_MERGE:          0
cpu0->LLC PREFETCH REQUESTED:          0 ISSUED:          0 USEFUL:          0 USELESS:          0
cpu0->LLC AVERAGE MISS LATENCY: 187.4 cycles

DRAM Statistics

Channel 0 RQ ROW_BUFFER_HIT:       1060
  ROW_BUFFER_MISS:      29502
  AVG DBUS CONGESTED CYCLE: 14.28
Channel 0 WQ ROW_BUFFER_HIT:       1036
  ROW_BUFFER_MISS:       2502
  FULL:          0
Channel 0 REFRESHES ISSUED:        664
