[VMEM] WARNING: physical memory size is smaller than virtual memory size.

*** ChampSim Multicore Out-of-Order Simulator ***
Warmup Instructions: 2000000
Simulation Instructions: 10000000
Number of CPUs: 1
Page size: 4096

Off-chip DRAM Size: 16 GiB Channels: 1 Width: 64-bit Data Rate: 3205 MT/s
Warmup finished CPU 0 instructions: 2000000 cycles: 789847 cumulative IPC: 2.532 (Simulation time: 00 hr 00 min 07 sec)
Warmup complete CPU 0 instructions: 2000000 cycles: 789847 cumulative IPC: 2.532 (Simulation time: 00 hr 00 min 07 sec)
Heartbeat CPU 0 instructions: 10000001 cycles: 7671778 heartbeat IPC: 1.303 cumulative IPC: 1.162 (Simulation time: 00 hr 00 min 46 sec)
Simulation finished CPU 0 instructions: 10000000 cycles: 8471969 cumulative IPC: 1.18 (Simulation time: 00 hr 00 min 56 sec)
Simulation complete CPU 0 instructions: 10000000 cycles: 8471969 cumulative IPC: 1.18 (Simulation time: 00 hr 00 min 56 sec)

ChampSim completed all CPUs

=== Simulation ===
CPU 0 runs traces/631.deepsjeng_s-928B.champsimtrace.xz

Region of Interest Statistics

CPU 0 cumulative IPC: 1.18 instructions: 10000000 cycles: 8471969
CPU 0 Branch Prediction Accuracy: 91.69% MPKI: 12.46 Average ROB Occupancy at Mispredict: 35.88
Branch type MPKI
BRANCH_DIRECT_JUMP: 0.0279
BRANCH_INDIRECT: 0.0106
BRANCH_CONDITIONAL: 11.95
BRANCH_DIRECT_CALL: 0.024
BRANCH_INDIRECT_CALL: 0
BRANCH_RETURN: 0.4437

cpu0->cpu0_STLB TOTAL        ACCESS:       2166 HIT:        745 MISS:       1421 MSHR_MERGE:          0
cpu0->cpu0_STLB LOAD         ACCESS:       2166 HIT:        745 MISS:       1421 MSHR_MERGE:          0
cpu0->cpu0_STLB RFO          ACCESS:          0 HIT:          0 MISS:          0 MSHR_MERGE:          0
cpu0->cpu0_STLB PREFETCH     ACCESS:          0 HIT:          0 MISS:          0 MSHR_MERGE:          0
cpu0->cpu0_STLB WRITE        ACCESS:          0 HIT:          0 MISS:          0 MSHR_MERGE:          0
cpu0->cpu0_STLB TRANSLATION  ACCESS:          0 HIT:          0 MISS:          0 MSHR_MERGE:          0
cpu0->cpu0_STLB PREFETCH REQUESTED:          0 ISSUED:          0 USEFUL:          0 USELESS:          0
cpu0->cpu0_STLB AVERAGE MISS LATENCY: 1032 cycles
cpu0->cpu0_L2C TOTAL        ACCESS:      25153 HIT:      18605 MISS:       6548 MSHR_MERGE:          0
cpu0->cpu0_L2C LOAD         ACCESS:      13381 HIT:      10944 MISS:       2437 MSHR_MERGE:          0
cpu0->cpu0_L2C RFO          ACCESS:       2820 HIT:       2441 MISS:        379 MSHR_MERGE:          0
cpu0->cpu0_L2C PREFETCH     ACCESS:          0 HIT:          0 MISS:          0 MSHR_MERGE:          0
cpu0->cpu0_L2C WRITE        ACCESS:       4786 HIT:       4782 MISS:          4 MSHR_MERGE:          0
cpu0->cpu0_L2C TRANSLATION  ACCESS:       4166 HIT:        438 MISS:       3728 MSHR_MERGE:          0
cpu0->cpu0_L2C PREFETCH REQUESTED:          0 ISSUED:          0 USEFUL:          0 USELESS:          0
cpu0->cpu0_L2C AVERAGE MISS LATENCY: 174.3 cycles
cpu0->cpu0_L1I TOTAL        ACCESS:    1109096 HIT:    1098317 MISS:      10779 MSHR_MERGE:       2431
cpu0->cpu0_L1I LOAD         ACCESS:    1109096 HIT:    1098317 MISS:      10779 MSHR_MERGE:       2431
cpu0->cpu0_L1I RFO          ACCESS:          0 HIT:          0 MISS:          0 MSHR_MERGE:          0
cpu0->cpu0_L1I PREFETCH     ACCESS:          0 HIT:          0 MISS:          0 MSHR_MERGE:          0
cpu0->cpu0_L1I WRITE        ACCESS:          0 HIT:          0 MISS:          0 MSHR_MERGE:          0
cpu0->cpu0_L1I TRANSLATION  ACCESS:          0 HIT:          0 MISS:          0 MSHR_MERGE:          0
cpu0->cpu0_L1I PREFETCH REQUESTED:          0 ISSUED:          0 USEFUL:          0 USELESS:          0
cpu0->cpu0_L1I AVERAGE MISS LATENCY: 7.893 cycles
cpu0->cpu0_L1D TOTAL        ACCESS:    3032799 HIT:    3013427 MISS:      19372 MSHR_MERGE:       7353
cpu0->cpu0_L1D LOAD         ACCESS:    1821458 HIT:    1814298 MISS:       7160 MSHR_MERGE:       2127
cpu0->cpu0_L1D RFO          ACCESS:          0 HIT:          0 MISS:          0 MSHR_MERGE:          0
cpu0->cpu0_L1D PREFETCH     ACCESS:          0 HIT:          0 MISS:          0 MSHR_MERGE:          0
cpu0->cpu0_L1D WRITE        ACCESS:    1207073 HIT:    1199038 MISS:       8035 MSHR_MERGE:       5215
cpu0->cpu0_L1D TRANSLATION  ACCESS:       4268 HIT:         91 MISS:       4177 MSHR_MERGE:         11
cpu0->cpu0_L1D PREFETCH REQUESTED:          0 ISSUED:          0 USEFUL:          0 USELESS:          0
cpu0->cpu0_L1D AVERAGE MISS LATENCY: 102.9 cycles
cpu0->cpu0_ITLB TOTAL        ACCESS:     944217 HIT:     944217 MISS:          0 MSHR_MERGE:          0
cpu0->cpu0_ITLB LOAD         ACCESS:     944217 HIT:     944217 MISS:          0 MSHR_MERGE:          0
cpu0->cpu0_ITLB RFO          ACCESS:          0 HIT:          0 MISS:          0 MSHR_MERGE:          0
cpu0->cpu0_ITLB PREFETCH     ACCESS:          0 HIT:          0 MISS:          0 MSHR_MERGE:          0
cpu0->cpu0_ITLB WRITE        ACCESS:          0 HIT:          0 MISS:          0 MSHR_MERGE:          0
cpu0->cpu0_ITLB TRANSLATION  ACCESS:          0 HIT:          0 MISS:          0 MSHR_MERGE:          0
cpu0->cpu0_ITLB PREFETCH REQUESTED:          0 ISSUED:          0 USEFUL:          0 USELESS:          0
cpu0->cpu0_ITLB AVERAGE MISS LATENCY: - cycles
cpu0->cpu0_DTLB TOTAL        ACCESS:    2841744 HIT:    2837413 MISS:       4331 MSHR_MERGE:       2165
cpu0->cpu0_DTLB LOAD         ACCESS:    2841744 HIT:    2837413 MISS:       4331 MSHR_MERGE:       2165
cpu0->cpu0_DTLB RFO          ACCESS:          0 HIT:          0 MISS:          0 MSHR_MERGE:          0
cpu0->cpu0_DTLB PREFETCH     ACCESS:          0 HIT:          0 MISS:          0 MSHR_MERGE:          0
cpu0->cpu0_DTLB WRITE        ACCESS:          0 HIT:          0 MISS:          0 MSHR_MERGE:          0
cpu0->cpu0_DTLB TRANSLATION  ACCESS:          0 HIT:          0 MISS:          0 MSHR_MERGE:          0
cpu0->cpu0_DTLB PREFETCH REQUESTED:          0 ISSUED:          0 USEFUL:          0 USELESS:          0
cpu0->cpu0_DTLB AVERAGE MISS LATENCY: 682.9 cycles
cpu0->LLC TOTAL        ACCESS:       7133 HIT:        687 MISS:       6446 MSHR_MERGE:          0
cpu0->LLC LOAD         ACCESS:       2437 HIT:         43 MISS:       2394 MSHR_MERGE:          0
cpu0->LLC RFO          ACCESS:        379 HIT:         11 MISS:        368 MSHR_MERGE:          0
cpu0->LLC PREFETCH     ACCESS:          0 HIT:          0 MISS:          0 MSHR_MERGE:          0
cpu0->LLC WRITE        ACCESS:        589 HIT:        589 MISS:          0 MSHR_MERGE:          0
cpu0->LLC TRANSLATION  ACCESS:       3728 HIT:         44 MISS:       3684 MSHR_MERGE:          0
cpu0->LLC PREFETCH REQUESTED:          0 ISSUED:          0 USEFUL:          0 USELESS:          0
cpu0->LLC AVERAGE MISS LATENCY: 160.8 cycles

DRAM Statistics

Channel 0 RQ ROW_BUFFER_HIT:         10
  ROW_BUFFER_MISS:       6436
  AVG DBUS CONGESTED CYCLE: 2.968
Channel 0 WQ ROW_BUFFER_HIT:          0
  ROW_BUFFER_MISS:          0
  FULL:          0
Channel 0 REFRESHES ISSUED:        706
