[VMEM] WARNING: physical memory size is smaller than virtual memory size.

*** ChampSim Multicore Out-of-Order Simulator ***
Warmup Instructions: 2000000
Simulation Instructions: 10000000
Number of CPUs: 1
Page size: 4096

Off-chip DRAM Size: 16 GiB Channels: 1 Width: 64-bit Data Rate: 3205 MT/s
Warmup finished CPU 0 instructions: 2000001 cycles: 569345 cumulative IPC: 3.513 (Simulation time: 00 hr 00 min 05 sec)
Warmup complete CPU 0 instructions: 2000001 cycles: 569345 cumulative IPC: 3.513 (Simulation time: 00 hr 00 min 05 sec)
Heartbeat CPU 0 instructions: 10000003 cycles: 7757941 heartbeat IPC: 1.289 cumulative IPC: 1.113 (Simulation time: 00 hr 00 min 44 sec)
Simulation finished CPU 0 instructions: 10000001 cycles: 9918271 cumulative IPC: 1.008 (Simulation time: 00 hr 00 min 58 sec)
Simulation complete CPU 0 instructions: 10000001 cycles: 9918271 cumulative IPC: 1.008 (Simulation time: 00 hr 00 min 58 sec)

ChampSim completed all CPUs

=== Simulation ===
CPU 0 runs traces/641.leela_s-149B.champsimtrace.xz

Region of Interest Statistics

CPU 0 cumulative IPC: 1.008 instructions: 10000001 cycles: 9918271
CPU 0 Branch Prediction Accuracy: 89.08% MPKI: 18.01 Average ROB Occupancy at Mispredict: 24.47
Branch type MPKI
BRANCH_DIRECT_JUMP: 0.1117
BRANCH_INDIRECT: 0.0064
BRANCH_CONDITIONAL: 17.84
BRANCH_DIRECT_CALL: 0.0127
BRANCH_INDIRECT_CALL: 0.0034
BRANCH_RETURN: 0.0393

cpu0->cpu0_STLB TOTAL        ACCESS:       6540 HIT:       6253 MISS:        287 MSHR_MERGE:          0
cpu0->cpu0_STLB LOAD         ACCESS:       6540 HIT:       6253 MISS:        287 MSHR_MERGE:          0
cpu0->cpu0_STLB RFO          ACCESS:          0 HIT:          0 MISS:          0 MSHR_MERGE:          0
cpu0->cpu0_STLB PREFETCH     ACCESS:          0 HIT:          0 MISS:          0 MSHR_MERGE:          0
cpu0->cpu0_STLB WRITE        ACCESS:          0 HIT:          0 MISS:          0 MSHR_MERGE:          0
cpu0->cpu0_STLB TRANSLATION  ACCESS:          0 HIT:          0 MISS:          0 MSHR_MERGE:          0
cpu0->cpu0_STLB PREFETCH REQUESTED:          0 ISSUED:          0 USEFUL:          0 USELESS:          0
cpu0->cpu0_STLB AVERAGE MISS LATENCY: 720.2 cycles
cpu0->cpu0_L2C TOTAL        ACCESS:      79417 HIT:      66765 MISS:      12652 MSHR_MERGE:          0
cpu0->cpu0_L2C LOAD         ACCESS:      41723 HIT:      36245 MISS:       5478 MSHR_MERGE:          0
cpu0->cpu0_L2C RFO          ACCESS:      14475 HIT:       7751 MISS:       6724 MSHR_MERGE:          0
cpu0->cpu0_L2C PREFETCH     ACCESS:          0 HIT:          0 MISS:          0 MSHR_MERGE:          0
cpu0->cpu0_L2C WRITE        ACCESS:      22770 HIT:      22767 MISS:          3 MSHR_MERGE:          0
cpu0->cpu0_L2C TRANSLATION  ACCESS:        449 HIT:          2 MISS:        447 MSHR_MERGE:          0
cpu0->cpu0_L2C PREFETCH REQUESTED:          0 ISSUED:          0 USEFUL:          0 USELESS:          0
cpu0->cpu0_L2C AVERAGE MISS LATENCY: 167.2 cycles
cpu0->cpu0_L1I TOTAL        ACCESS:     940204 HIT:     935955 MISS:       4249 MSHR_MERGE:       1496
cpu0->cpu0_L1I LOAD         ACCESS:     940204 HIT:     935955 MISS:       4249 MSHR_MERGE:       1496
cpu0->cpu0_L1I RFO          ACCESS:          0 HIT:          0 MISS:          0 MSHR_MERGE:          0
cpu0->cpu0_L1I PREFETCH     ACCESS:          0 HIT:          0 MISS:          0 MSHR_MERGE:          0
cpu0->cpu0_L1I WRITE        ACCESS:          0 HIT:          0 MISS:          0 MSHR_MERGE:          0
cpu0->cpu0_L1I TRANSLATION  ACCESS:          0 HIT:          0 MISS:          0 MSHR_MERGE:          0
cpu0->cpu0_L1I PREFETCH REQUESTED:          0 ISSUED:          0 USEFUL:          0 USELESS:          0
cpu0->cpu0_L1I AVERAGE MISS LATENCY: 28.2 cycles
cpu0->cpu0_L1D TOTAL        ACCESS:    2875230 HIT:    2760645 MISS:     114585 MSHR_MERGE:      60691
cpu0->cpu0_L1D LOAD         ACCESS:    1733474 HIT:    1685926 MISS:      47548 MSHR_MERGE:       8578
cpu0->cpu0_L1D RFO          ACCESS:          0 HIT:          0 MISS:          0 MSHR_MERGE:          0
cpu0->cpu0_L1D PREFETCH     ACCESS:          0 HIT:          0 MISS:          0 MSHR_MERGE:          0
cpu0->cpu0_L1D WRITE        ACCESS:    1141182 HIT:    1074594 MISS:      66588 MSHR_MERGE:      52113
cpu0->cpu0_L1D TRANSLATION  ACCESS:        574 HIT:        125 MISS:        449 MSHR_MERGE:          0
cpu0->cpu0_L1D PREFETCH REQUESTED:          0 ISSUED:          0 USEFUL:          0 USELESS:          0
cpu0->cpu0_L1D AVERAGE MISS LATENCY: 46.41 cycles
cpu0->cpu0_ITLB TOTAL        ACCESS:     830939 HIT:     830858 MISS:         81 MSHR_MERGE:         36
cpu0->cpu0_ITLB LOAD         ACCESS:     830939 HIT:     830858 MISS:         81 MSHR_MERGE:         36
cpu0->cpu0_ITLB RFO          ACCESS:          0 HIT:          0 MISS:          0 MSHR_MERGE:          0
cpu0->cpu0_ITLB PREFETCH     ACCESS:          0 HIT:          0 MISS:          0 MSHR_MERGE:          0
cpu0->cpu0_ITLB WRITE        ACCESS:          0 HIT:          0 MISS:          0 MSHR_MERGE:          0
cpu0->cpu0_ITLB TRANSLATION  ACCESS:          0 HIT:          0 MISS:          0 MSHR_MERGE:          0
cpu0->cpu0_ITLB PREFETCH REQUESTED:          0 ISSUED:          0 USEFUL:          0 USELESS:          0
cpu0->cpu0_ITLB AVERAGE MISS LATENCY: 443.9 cycles
cpu0->cpu0_DTLB TOTAL        ACCESS:    2726666 HIT:    2716895 MISS:       9771 MSHR_MERGE:       3276
cpu0->cpu0_DTLB LOAD         ACCESS:    2726666 HIT:    2716895 MISS:       9771 MSHR_MERGE:       3276
cpu0->cpu0_DTLB RFO          ACCESS:          0 HIT:          0 MISS:          0 MSHR_MERGE:          0
cpu0->cpu0_DTLB PREFETCH     ACCESS:          0 HIT:          0 MISS:          0 MSHR_MERGE:          0
cpu0->cpu0_DTLB WRITE        ACCESS:          0 HIT:          0 MISS:          0 MSHR_MERGE:          0
cpu0->cpu0_DTLB TRANSLATION  ACCESS:          0 HIT:          0 MISS:          0 MSHR_MERGE:          0
cpu0->cpu0_DTLB PREFETCH REQUESTED:          0 ISSUED:          0 USEFUL:          0 USELESS:          0
cpu0->cpu0_DTLB AVERAGE MISS LATENCY: 33.83 cycles
cpu0->LLC TOTAL        ACCESS:      15243 HIT:       4273 MISS:      10970 MSHR_MERGE:          0
cpu0->LLC LOAD         ACCESS:       5478 HIT:       1642 MISS:       3836 MSHR_MERGE:          0
cpu0->LLC RFO          ACCESS:       6724 HIT:         35 MISS:       6689 MSHR_MERGE:          0
cpu0->LLC PREFETCH     ACCESS:          0 HIT:          0 MISS:          0 MSHR_MERGE:          0
cpu0->LLC WRITE        ACCESS:       2594 HIT:       2594 MISS:          0 MSHR_MERGE:          0
cpu0->LLC TRANSLATION  ACCESS:        447 HIT:          2 MISS:        445 MSHR_MERGE:          0
cpu0->LLC PREFETCH REQUESTED:          0 ISSUED:          0 USEFUL:          0 USELESS:          0
cpu0->LLC AVERAGE MISS LATENCY: 174.5 cycles

DRAM Statistics

Channel 0 RQ ROW_BUFFER_HIT:       1607
  ROW_BUFFER_MISS:       9363
  AVG DBUS CONGESTED CYCLE: 2.773
Channel 0 WQ ROW_BUFFER_HIT:          0
  ROW_BUFFER_MISS:          0
  FULL:          0
Channel 0 REFRESHES ISSUED:        826
