[VMEM] WARNING: physical memory size is smaller than virtual memory size.

*** ChampSim Multicore Out-of-Order Simulator ***
Warmup Instructions: 2000000
Simulation Instructions: 10000000
Number of CPUs: 1
Page size: 4096

Off-chip DRAM Size: 16 GiB Channels: 1 Width: 64-bit Data Rate: 3205 MT/s
Warmup finished CPU 0 instructions: 2000004 cycles: 508385 cumulative IPC: 3.934 (Simulation time: 00 hr 00 min 05 sec)
Warmup complete CPU 0 instructions: 2000004 cycles: 508385 cumulative IPC: 3.934 (Simulation time: 00 hr 00 min 05 sec)
Heartbeat CPU 0 instructions: 10000003 cycles: 5328840 heartbeat IPC: 1.877 cumulative IPC: 1.66 (Simulation time: 00 hr 00 min 35 sec)
Simulation finished CPU 0 instructions: 10000002 cycles: 6080994 cumulative IPC: 1.644 (Simulation time: 00 hr 00 min 43 sec)
Simulation complete CPU 0 instructions: 10000002 cycles: 6080994 cumulative IPC: 1.644 (Simulation time: 00 hr 00 min 43 sec)

ChampSim completed all CPUs

=== Simulation ===
CPU 0 runs traces/648.exchange2_s-387B.champsimtrace.xz

Region of Interest Statistics

CPU 0 cumulative IPC: 1.644 instructions: 10000002 cycles: 6080994
CPU 0 Branch Prediction Accuracy: 91.35% MPKI: 12.37 Average ROB Occupancy at Mispredict: 34.79
Branch type MPKI
BRANCH_DIRECT_JUMP: 0.1638
BRANCH_INDIRECT: 0
BRANCH_CONDITIONAL: 12.19
BRANCH_DIRECT_CALL: 0.008
BRANCH_INDIRECT_CALL: 0
BRANCH_RETURN: 0.008

cpu0->cpu0_STLB TOTAL        ACCESS:         35 HIT:          0 MISS:         35 MSHR_MERGE:          0
cpu0->cpu0_STLB LOAD         ACCESS:         35 HIT:          0 MISS:         35 MSHR_MERGE:          0
cpu0->cpu0_STLB RFO          ACCESS:          0 HIT:          0 MISS:          0 MSHR_MERGE:          0
cpu0->cpu0_STLB PREFETCH     ACCESS:          0 HIT:          0 MISS:          0 MSHR_MERGE:          0
cpu0->cpu0_STLB WRITE        ACCESS:          0 HIT:          0 MISS:          0 MSHR_MERGE:          0
cpu0->cpu0_STLB TRANSLATION  ACCESS:          0 HIT:          0 MISS:          0 MSHR_MERGE:          0
cpu0->cpu0_STLB PREFETCH REQUESTED:          0 ISSUED:          0 USEFUL:          0 USELESS:          0
cpu0->cpu0_STLB AVERAGE MISS LATENCY: 713.1 cycles
cpu0->cpu0_L2C TOTAL        ACCESS:       1234 HIT:        240 MISS:        994 MSHR_MERGE:          0
cpu0->cpu0_L2C LOAD         ACCESS:       1084 HIT:        236 MISS:        848 MSHR_MERGE:          0
cpu0->cpu0_L2C RFO          ACCESS:         93 HIT:          0 MISS:         93 MSHR_MERGE:          0
cpu0->cpu0_L2C PREFETCH     ACCESS:          0 HIT:          0 MISS:          0 MSHR_MERGE:          0
cpu0->cpu0_L2C WRITE        ACCESS:          4 HIT:          4 MISS:          0 MSHR_MERGE:          0
cpu0->cpu0_L2C TRANSLATION  ACCESS:         53 HIT:          0 MISS:         53 MSHR_MERGE:          0
cpu0->cpu0_L2C PREFETCH REQUESTED:          0 ISSUED:          0 USEFUL:          0 USELESS:          0
cpu0->cpu0_L2C AVERAGE MISS LATENCY: 186.4 cycles
cpu0->cpu0_L1I TOTAL        ACCESS:     923989 HIT:     922447 MISS:       1542 MSHR_MERGE:        493
cpu0->cpu0_L1I LOAD         ACCESS:     923989 HIT:     922447 MISS:       1542 MSHR_MERGE:        493
cpu0->cpu0_L1I RFO          ACCESS:          0 HIT:          0 MISS:          0 MSHR_MERGE:          0
cpu0->cpu0_L1I PREFETCH     ACCESS:          0 HIT:          0 MISS:          0 MSHR_MERGE:          0
cpu0->cpu0_L1I WRITE        ACCESS:          0 HIT:          0 MISS:          0 MSHR_MERGE:          0
cpu0->cpu0_L1I TRANSLATION  ACCESS:          0 HIT:          0 MISS:          0 MSHR_MERGE:          0
cpu0->cpu0_L1I PREFETCH REQUESTED:          0 ISSUED:          0 USEFUL:          0 USELESS:          0
cpu0->cpu0_L1I AVERAGE MISS LATENCY: 151 cycles
cpu0->cpu0_L1D TOTAL        ACCESS:    3143042 HIT:    3142163 MISS:        879 MSHR_MERGE:        698
cpu0->cpu0_L1D LOAD         ACCESS:    1533639 HIT:    1533551 MISS:         88 MSHR_MERGE:         53
cpu0->cpu0_L1D RFO          ACCESS:          0 HIT:          0 MISS:          0 MSHR_MERGE:          0
cpu0->cpu0_L1D PREFETCH     ACCESS:          0 HIT:          0 MISS:          0 MSHR_MERGE:          0
cpu0->cpu0_L1D WRITE        ACCESS:    1609332 HIT:    1608594 MISS:        738 MSHR_MERGE:        645
cpu0->cpu0_L1D TRANSLATION  ACCESS:         71 HIT:         18 MISS:         53 MSHR_MERGE:          0
cpu0->cpu0_L1D PREFETCH REQUESTED:          0 ISSUED:          0 USEFUL:          0 USELESS:          0
cpu0->cpu0_L1D AVERAGE MISS LATENCY: 202.4 cycles
cpu0->cpu0_ITLB TOTAL        ACCESS:     730952 HIT:     730895 MISS:         57 MSHR_MERGE:         34
cpu0->cpu0_ITLB LOAD         ACCESS:     730952 HIT:     730895 MISS:         57 MSHR_MERGE:         34
cpu0->cpu0_ITLB RFO          ACCESS:          0 HIT:          0 MISS:          0 MSHR_MERGE:          0
cpu0->cpu0_ITLB PREFETCH     ACCESS:          0 HIT:          0 MISS:          0 MSHR_MERGE:          0
cpu0->cpu0_ITLB WRITE        ACCESS:          0 HIT:          0 MISS:          0 MSHR_MERGE:          0
cpu0->cpu0_ITLB TRANSLATION  ACCESS:          0 HIT:          0 MISS:          0 MSHR_MERGE:          0
cpu0->cpu0_ITLB PREFETCH REQUESTED:          0 ISSUED:          0 USEFUL:          0 USELESS:          0
cpu0->cpu0_ITLB AVERAGE MISS LATENCY: 709.1 cycles
cpu0->cpu0_DTLB TOTAL        ACCESS:    2810259 HIT:    2810214 MISS:         45 MSHR_MERGE:         33
cpu0->cpu0_DTLB LOAD         ACCESS:    2810259 HIT:    2810214 MISS:         45 MSHR_MERGE:         33
cpu0->cpu0_DTLB RFO          ACCESS:          0 HIT:          0 MISS:          0 MSHR_MERGE:          0
cpu0->cpu0_DTLB PREFETCH     ACCESS:          0 HIT:          0 MISS:          0 MSHR_MERGE:          0
cpu0->cpu0_DTLB WRITE        ACCESS:          0 HIT:          0 MISS:          0 MSHR_MERGE:          0
cpu0->cpu0_DTLB TRANSLATION  ACCESS:          0 HIT:          0 MISS:          0 MSHR_MERGE:          0
cpu0->cpu0_DTLB PREFETCH REQUESTED:          0 ISSUED:          0 USEFUL:          0 USELESS:          0
cpu0->cpu0_DTLB AVERAGE MISS LATENCY: 738.3 cycles
cpu0->LLC TOTAL        ACCESS:        994 HIT:          0 MISS:        994 MSHR_MERGE:          0
cpu0->LLC LOAD         ACCESS:        848 HIT:          0 MISS:        848 MSHR_MERGE:          0
cpu0->LLC RFO          ACCESS:         93 HIT:          0 MISS:         93 MSHR_MERGE:          0
cpu0->LLC PREFETCH     ACCESS:          0 HIT:          0 MISS:          0 MSHR_MERGE:          0
cpu0->LLC WRITE        ACCESS:          0 HIT:          0 MISS:          0 MSHR_MERGE:          0
cpu0->LLC TRANSLATION  ACCESS:         53 HIT:          0 MISS:         53 MSHR_MERGE:          0
cpu0->LLC PREFETCH REQUESTED:          0 ISSUED:          0 USEFUL:          0 USELESS:          0
cpu0->LLC AVERAGE MISS LATENCY: 170.4 cycles

DRAM Statistics

Channel 0 RQ ROW_BUFFER_HIT:         52
  ROW_BUFFER_MISS:        942
  AVG DBUS CONGESTED CYCLE: 2.972
Channel 0 WQ ROW_BUFFER_HIT:          0
  ROW_BUFFER_MISS:          0
  FULL:          0
Channel 0 REFRESHES ISSUED:        507
