[VMEM] WARNING: physical memory size is smaller than virtual memory size.

*** ChampSim Multicore Out-of-Order Simulator ***
Warmup Instructions: 2000000
Simulation Instructions: 10000000
Number of CPUs: 1
Page size: 4096

Off-chip DRAM Size: 16 GiB Channels: 1 Width: 64-bit Data Rate: 3205 MT/s
Warmup finished CPU 0 instructions: 2000000 cycles: 526097 cumulative IPC: 3.802 (Simulation time: 00 hr 00 min 05 sec)
Warmup complete CPU 0 instructions: 2000000 cycles: 526097 cumulative IPC: 3.802 (Simulation time: 00 hr 00 min 05 sec)
Heartbeat CPU 0 instructions: 10000004 cycles: 6916346 heartbeat IPC: 1.446 cumulative IPC: 1.252 (Simulation time: 00 hr 00 min 53 sec)
Simulation finished CPU 0 instructions: 10000000 cycles: 9819210 cumulative IPC: 1.018 (Simulation time: 00 hr 01 min 16 sec)
Simulation complete CPU 0 instructions: 10000000 cycles: 9819210 cumulative IPC: 1.018 (Simulation time: 00 hr 01 min 16 sec)

ChampSim completed all CPUs

=== Simulation ===
CPU 0 runs traces/654.roms_s-293B.champsimtrace.xz

Region of Interest Statistics

CPU 0 cumulative IPC: 1.018 instructions: 10000000 cycles: 9819210
CPU 0 Branch Prediction Accuracy: 99.67% MPKI: 0.0506 Average ROB Occupancy at Mispredict: 220.3
Branch type MPKI
BRANCH_DIRECT_JUMP: 0.0001
BRANCH_INDIRECT: 0
BRANCH_CONDITIONAL: 0.0505
BRANCH_DIRECT_CALL: 0
BRANCH_INDIRECT_CALL: 0
BRANCH_RETURN: 0

cpu0->cpu0_STLB TOTAL        ACCESS:       3002 HIT:       1580 MISS:       1422 MSHR_MERGE:          0
cpu0->cpu0_STLB LOAD         ACCESS:       3002 HIT:       1580 MISS:       1422 MSHR_MERGE:          0
cpu0->cpu0_STLB RFO          ACCESS:          0 HIT:          0 MISS:          0 MSHR_MERGE:          0
cpu0->cpu0_STLB PREFETCH     ACCESS:          0 HIT:          0 MISS:          0 MSHR_MERGE:          0
cpu0->cpu0_STLB WRITE        ACCESS:          0 HIT:          0 MISS:          0 MSHR_MERGE:          0
cpu0->cpu0_STLB TRANSLATION  ACCESS:          0 HIT:          0 MISS:          0 MSHR_MERGE:          0
cpu0->cpu0_STLB PREFETCH REQUESTED:          0 ISSUED:          0 USEFUL:          0 USELESS:          0
cpu0->cpu0_STLB AVERAGE MISS LATENCY: 902.5 cycles
cpu0->cpu0_L2C TOTAL        ACCESS:     191466 HIT:      76863 MISS:     114603 MSHR_MERGE:          0
cpu0->cpu0_L2C LOAD         ACCESS:      87706 HIT:      25909 MISS:      61797 MSHR_MERGE:          0
cpu0->cpu0_L2C RFO          ACCESS:      50358 HIT:        206 MISS:      50152 MSHR_MERGE:          0
cpu0->cpu0_L2C PREFETCH     ACCESS:          0 HIT:          0 MISS:          0 MSHR_MERGE:          0
cpu0->cpu0_L2C WRITE        ACCESS:      50559 HIT:      50501 MISS:         58 MSHR_MERGE:          0
cpu0->cpu0_L2C TRANSLATION  ACCESS:       2843 HIT:        247 MISS:       2596 MSHR_MERGE:          0
cpu0->cpu0_L2C PREFETCH REQUESTED:          0 ISSUED:          0 USEFUL:          0 USELESS:          0
cpu0->cpu0_L2C AVERAGE MISS LATENCY: 177.5 cycles
cpu0->cpu0_L1I TOTAL        ACCESS:    2009317 HIT:    2009254 MISS:         63 MSHR_MERGE:         21
cpu0->cpu0_L1I LOAD         ACCESS:    2009317 HIT:    2009254 MISS:         63 MSHR_MERGE:         21
cpu0->cpu0_L1I RFO          ACCESS:          0 HIT:          0 MISS:          0 MSHR_MERGE:          0
cpu0->cpu0_L1I PREFETCH     ACCESS:          0 HIT:          0 MISS:          0 MSHR_MERGE:          0
cpu0->cpu0_L1I WRITE        ACCESS:          0 HIT:          0 MISS:          0 MSHR_MERGE:          0
cpu0->cpu0_L1I TRANSLATION  ACCESS:          0 HIT:          0 MISS:          0 MSHR_MERGE:          0
cpu0->cpu0_L1I PREFETCH REQUESTED:          0 ISSUED:          0 USEFUL:          0 USELESS:          0
cpu0->cpu0_L1I AVERAGE MISS LATENCY: 305.9 cycles
cpu0->cpu0_L1D TOTAL        ACCESS:    3185765 HIT:    2841875 MISS:     343890 MSHR_MERGE:     203012
cpu0->cpu0_L1D LOAD         ACCESS:    2279275 HIT:    2127863 MISS:     151412 MSHR_MERGE:      63748
cpu0->cpu0_L1D RFO          ACCESS:          0 HIT:          0 MISS:          0 MSHR_MERGE:          0
cpu0->cpu0_L1D PREFETCH     ACCESS:          0 HIT:          0 MISS:          0 MSHR_MERGE:          0
cpu0->cpu0_L1D WRITE        ACCESS:     903038 HIT:     713418 MISS:     189620 MSHR_MERGE:     139249
cpu0->cpu0_L1D TRANSLATION  ACCESS:       3452 HIT:        594 MISS:       2858 MSHR_MERGE:         15
cpu0->cpu0_L1D PREFETCH REQUESTED:          0 ISSUED:          0 USEFUL:          0 USELESS:          0
cpu0->cpu0_L1D AVERAGE MISS LATENCY: 153.1 cycles
cpu0->cpu0_ITLB TOTAL        ACCESS:    1518776 HIT:    1518775 MISS:          1 MSHR_MERGE:          0
cpu0->cpu0_ITLB LOAD         ACCESS:    1518776 HIT:    1518775 MISS:          1 MSHR_MERGE:          0
cpu0->cpu0_ITLB RFO          ACCESS:          0 HIT:          0 MISS:          0 MSHR_MERGE:          0
cpu0->cpu0_ITLB PREFETCH     ACCESS:          0 HIT:          0 MISS:          0 MSHR_MERGE:          0
cpu0->cpu0_ITLB WRITE        ACCESS:          0 HIT:          0 MISS:          0 MSHR_MERGE:          0
cpu0->cpu0_ITLB TRANSLATION  ACCESS:          0 HIT:          0 MISS:          0 MSHR_MERGE:          0
cpu0->cpu0_ITLB PREFETCH REQUESTED:          0 ISSUED:          0 USEFUL:          0 USELESS:          0
cpu0->cpu0_ITLB AVERAGE MISS LATENCY: 1063 cycles
cpu0->cpu0_DTLB TOTAL        ACCESS:    3027196 HIT:    3017184 MISS:      10012 MSHR_MERGE:       7011
cpu0->cpu0_DTLB LOAD         ACCESS:    3027196 HIT:    3017184 MISS:      10012 MSHR_MERGE:       7011
cpu0->cpu0_DTLB RFO          ACCESS:          0 HIT:          0 MISS:          0 MSHR_MERGE:          0
cpu0->cpu0_DTLB PREFETCH     ACCESS:          0 HIT:          0 MISS:          0 MSHR_MERGE:          0
cpu0->cpu0_DTLB WRITE        ACCESS:          0 HIT:          0 MISS:          0 MSHR_MERGE:          0
cpu0->cpu0_DTLB TRANSLATION  ACCESS:          0 HIT:          0 MISS:          0 MSHR_MERGE:          0
cpu0->cpu0_DTLB PREFETCH REQUESTED:          0 ISSUED:          0 USEFUL:          0 USELESS:          0
cpu0->cpu0_DTLB AVERAGE MISS LATENCY: 432.9 cycles
cpu0->LLC TOTAL        ACCESS:     166493 HIT:      85525 MISS:      80968 MSHR_MERGE:          0
cpu0->LLC LOAD         ACCESS:      61797 HIT:      25650 MISS:      36147 MSHR_MERGE:          0
cpu0->LLC RFO          ACCESS:      50152 HIT:       7909 MISS:      42243 MSHR_MERGE:          0
cpu0->LLC PREFETCH     ACCESS:          0 HIT:          0 MISS:          0 MSHR_MERGE:          0
cpu0->LLC WRITE        ACCESS:      51948 HIT:      51940 MISS:          8 MSHR_MERGE:          0
cpu0->LLC TRANSLATION  ACCESS:       2596 HIT:         26 MISS:       2570 MSHR_MERGE:          0
cpu0->LLC PREFETCH REQUESTED:          0 ISSUED:          0 USEFUL:          0 USELESS:          0
cpu0->LLC AVERAGE MISS LATENCY: 229 cycles

DRAM Statistics

Channel 0 RQ ROW_BUFFER_HIT:        455
  ROW_BUFFER_MISS:      80378
  AVG DBUS CONGESTED CYCLE: 7.471
Channel 0 WQ ROW_BUFFER_HIT:      11255
  ROW_BUFFER_MISS:      25615
  FULL:          0
Channel 0 REFRESHES ISSUED:        819
