[VMEM] WARNING: physical memory size is smaller than virtual memory size.

*** ChampSim Multicore Out-of-Order Simulator ***
Warmup Instructions: 2000000
Simulation Instructions: 10000000
Number of CPUs: 1
Page size: 4096

Off-chip DRAM Size: 16 GiB Channels: 1 Width: 64-bit Data Rate: 3205 MT/s
Warmup finished CPU 0 instructions: 2000001 cycles: 522638 cumulative IPC: 3.827 (Simulation time: 00 hr 00 min 04 sec)
Warmup complete CPU 0 instructions: 2000001 cycles: 522638 cumulative IPC: 3.827 (Simulation time: 00 hr 00 min 04 sec)
Heartbeat CPU 0 instructions: 10000000 cycles: 6266285 heartbeat IPC: 1.596 cumulative IPC: 1.393 (Simulation time: 00 hr 00 min 34 sec)
Simulation finished CPU 0 instructions: 10000000 cycles: 7127327 cumulative IPC: 1.403 (Simulation time: 00 hr 00 min 42 sec)
Simulation complete CPU 0 instructions: 10000000 cycles: 7127327 cumulative IPC: 1.403 (Simulation time: 00 hr 00 min 42 sec)

ChampSim completed all CPUs

=== Simulation ===
CPU 0 runs traces/657.xz_s-4994B.champsimtrace.xz

Region of Interest Statistics

CPU 0 cumulative IPC: 1.403 instructions: 10000000 cycles: 7127327
CPU 0 Branch Prediction Accuracy: 85.76% MPKI: 15.01 Average ROB Occupancy at Mispredict: 29.1
Branch type MPKI
BRANCH_DIRECT_JUMP: 0.0003
BRANCH_INDIRECT: 0.0022
BRANCH_CONDITIONAL: 15.01
BRANCH_DIRECT_CALL: 0
BRANCH_INDIRECT_CALL: 0
BRANCH_RETURN: 0.0002

cpu0->cpu0_STLB TOTAL        ACCESS:         41 HIT:         10 MISS:         31 MSHR_MERGE:          0
cpu0->cpu0_STLB LOAD         ACCESS:         41 HIT:         10 MISS:         31 MSHR_MERGE:          0
cpu0->cpu0_STLB RFO          ACCESS:          0 HIT:          0 MISS:          0 MSHR_MERGE:          0
cpu0->cpu0_STLB PREFETCH     ACCESS:          0 HIT:          0 MISS:          0 MSHR_MERGE:          0
cpu0->cpu0_STLB WRITE        ACCESS:          0 HIT:          0 MISS:          0 MSHR_MERGE:          0
cpu0->cpu0_STLB TRANSLATION  ACCESS:          0 HIT:          0 MISS:          0 MSHR_MERGE:          0
cpu0->cpu0_STLB PREFETCH REQUESTED:          0 ISSUED:          0 USEFUL:          0 USELESS:          0
cpu0->cpu0_STLB AVERAGE MISS LATENCY: 686 cycles
cpu0->cpu0_L2C TOTAL        ACCESS:       5161 HIT:       3492 MISS:       1669 MSHR_MERGE:          0
cpu0->cpu0_L2C LOAD         ACCESS:       1806 HIT:       1203 MISS:        603 MSHR_MERGE:          0
cpu0->cpu0_L2C RFO          ACCESS:       1254 HIT:        231 MISS:       1023 MSHR_MERGE:          0
cpu0->cpu0_L2C PREFETCH     ACCESS:          0 HIT:          0 MISS:          0 MSHR_MERGE:          0
cpu0->cpu0_L2C WRITE        ACCESS:       2048 HIT:       2048 MISS:          0 MSHR_MERGE:          0
cpu0->cpu0_L2C TRANSLATION  ACCESS:         53 HIT:         10 MISS:         43 MSHR_MERGE:          0
cpu0->cpu0_L2C PREFETCH REQUESTED:          0 ISSUED:          0 USEFUL:          0 USELESS:          0
cpu0->cpu0_L2C AVERAGE MISS LATENCY: 162.1 cycles
cpu0->cpu0_L1I TOTAL        ACCESS:     156365 HIT:     156358 MISS:          7 MSHR_MERGE:          1
cpu0->cpu0_L1I LOAD         ACCESS:     156365 HIT:     156358 MISS:          7 MSHR_MERGE:          1
cpu0->cpu0_L1I RFO          ACCESS:          0 HIT:          0 MISS:          0 MSHR_MERGE:          0
cpu0->cpu0_L1I PREFETCH     ACCESS:          0 HIT:          0 MISS:          0 MSHR_MERGE:          0
cpu0->cpu0_L1I WRITE        ACCESS:          0 HIT:          0 MISS:          0 MSHR_MERGE:          0
cpu0->cpu0_L1I TRANSLATION  ACCESS:          0 HIT:          0 MISS:          0 MSHR_MERGE:          0
cpu0->cpu0_L1I PREFETCH REQUESTED:          0 ISSUED:          0 USEFUL:          0 USELESS:          0
cpu0->cpu0_L1I AVERAGE MISS LATENCY: 176.7 cycles
cpu0->cpu0_L1D TOTAL        ACCESS:    1562719 HIT:    1555014 MISS:       7705 MSHR_MERGE:       4598
cpu0->cpu0_L1D LOAD         ACCESS:     942574 HIT:     940363 MISS:       2211 MSHR_MERGE:        411
cpu0->cpu0_L1D RFO          ACCESS:          0 HIT:          0 MISS:          0 MSHR_MERGE:          0
cpu0->cpu0_L1D PREFETCH     ACCESS:          0 HIT:          0 MISS:          0 MSHR_MERGE:          0
cpu0->cpu0_L1D WRITE        ACCESS:     620083 HIT:     614642 MISS:       5441 MSHR_MERGE:       4187
cpu0->cpu0_L1D TRANSLATION  ACCESS:         62 HIT:          9 MISS:         53 MSHR_MERGE:          0
cpu0->cpu0_L1D PREFETCH REQUESTED:          0 ISSUED:          0 USEFUL:          0 USELESS:          0
cpu0->cpu0_L1D AVERAGE MISS LATENCY: 95.27 cycles
cpu0->cpu0_ITLB TOTAL        ACCESS:     141756 HIT:     141756 MISS:          0 MSHR_MERGE:          0
cpu0->cpu0_ITLB LOAD         ACCESS:     141756 HIT:     141756 MISS:          0 MSHR_MERGE:          0
cpu0->cpu0_ITLB RFO          ACCESS:          0 HIT:          0 MISS:          0 MSHR_MERGE:          0
cpu0->cpu0_ITLB PREFETCH     ACCESS:          0 HIT:          0 MISS:          0 MSHR_MERGE:          0
cpu0->cpu0_ITLB WRITE        ACCESS:          0 HIT:          0 MISS:          0 MSHR_MERGE:          0
cpu0->cpu0_ITLB TRANSLATION  ACCESS:          0 HIT:          0 MISS:          0 MSHR_MERGE:          0
cpu0->cpu0_ITLB PREFETCH REQUESTED:          0 ISSUED:          0 USEFUL:          0 USELESS:          0
cpu0->cpu0_ITLB AVERAGE MISS LATENCY: - cycles
cpu0->cpu0_DTLB TOTAL        ACCESS:    1470719 HIT:    1470586 MISS:        133 MSHR_MERGE:         92
cpu0->cpu0_DTLB LOAD         ACCESS:    1470719 HIT:    1470586 MISS:        133 MSHR_MERGE:         92
cpu0->cpu0_DTLB RFO          ACCESS:          0 HIT:          0 MISS:          0 MSHR_MERGE:          0
cpu0->cpu0_DTLB PREFETCH     ACCESS:          0 HIT:          0 MISS:          0 MSHR_MERGE:          0
cpu0->cpu0_DTLB WRITE        ACCESS:          0 HIT:          0 MISS:          0 MSHR_MERGE:          0
cpu0->cpu0_DTLB TRANSLATION  ACCESS:          0 HIT:          0 MISS:          0 MSHR_MERGE:          0
cpu0->cpu0_DTLB PREFETCH REQUESTED:          0 ISSUED:          0 USEFUL:          0 USELESS:          0
cpu0->cpu0_DTLB AVERAGE MISS LATENCY: 524.4 cycles
cpu0->LLC TOTAL        ACCESS:       1669 HIT:          0 MISS:       1669 MSHR_MERGE:          0
cpu0->LLC LOAD         ACCESS:        603 HIT:          0 MISS:        603 MSHR_MERGE:          0
cpu0->LLC RFO          ACCESS:       1023 HIT:          0 MISS:       1023 MSHR_MERGE:          0
cpu0->LLC PREFETCH     ACCESS:          0 HIT:          0 MISS:          0 MSHR_MERGE:          0
cpu0->LLC WRITE        ACCESS:          0 HIT:          0 MISS:          0 MSHR_MERGE:          0
cpu0->LLC TRANSLATION  ACCESS:         43 HIT:          0 MISS:         43 MSHR_MERGE:          0
cpu0->LLC PREFETCH REQUESTED:          0 ISSUED:          0 USEFUL:          0 USELESS:          0
cpu0->LLC AVERAGE MISS LATENCY: 146.1 cycles

DRAM Statistics

Channel 0 RQ ROW_BUFFER_HIT:        373
  ROW_BUFFER_MISS:       1296
  AVG DBUS CONGESTED CYCLE: 2.899
Channel 0 WQ ROW_BUFFER_HIT:          0
  ROW_BUFFER_MISS:          0
  FULL:          0
Channel 0 REFRESHES ISSUED:        594
