[VMEM] WARNING: physical memory size is smaller than virtual memory size.

*** ChampSim Multicore Out-of-Order Simulator ***
Warmup Instructions: 1000000
Simulation Instructions: 5000000
Number of CPUs: 1
Page size: 4096

Off-chip DRAM Size: 16 GiB Channels: 1 Width: 64-bit Data Rate: 3205 MT/s
Warmup finished CPU 0 instructions: 1000001 cycles: 287829 cumulative IPC: 3.474 (Simulation time: 00 hr 00 min 03 sec)
Warmup complete CPU 0 instructions: 1000001 cycles: 287829 cumulative IPC: 3.474 (Simulation time: 00 hr 00 min 03 sec)
Simulation finished CPU 0 instructions: 5000000 cycles: 5751792 cumulative IPC: 0.8693 (Simulation time: 00 hr 00 min 38 sec)
Simulation complete CPU 0 instructions: 5000000 cycles: 5751792 cumulative IPC: 0.8693 (Simulation time: 00 hr 00 min 38 sec)

ChampSim completed all CPUs

=== Simulation ===
CPU 0 runs traces/603.bwaves_s-2931B.champsimtrace.xz

Region of Interest Statistics

CPU 0 cumulative IPC: 0.8693 instructions: 5000000 cycles: 5751792
CPU 0 Branch Prediction Accuracy: 80.62% MPKI: 1.636 Average ROB Occupancy at Mispredict: 296.9
Branch type MPKI
BRANCH_DIRECT_JUMP: 0
BRANCH_INDIRECT: 0
BRANCH_CONDITIONAL: 1.636
BRANCH_DIRECT_CALL: 0
BRANCH_INDIRECT_CALL: 0
BRANCH_RETURN: 0

cpu0->cpu0_STLB TOTAL        ACCESS:       8264 HIT:       7192 MISS:       1072 MSHR_MERGE:          0
cpu0->cpu0_STLB LOAD         ACCESS:       8264 HIT:       7192 MISS:       1072 MSHR_MERGE:          0
cpu0->cpu0_STLB RFO          ACCESS:          0 HIT:          0 MISS:          0 MSHR_MERGE:          0
cpu0->cpu0_STLB PREFETCH     ACCESS:          0 HIT:          0 MISS:          0 MSHR_MERGE:          0
cpu0->cpu0_STLB WRITE        ACCESS:          0 HIT:          0 MISS:          0 MSHR_MERGE:          0
cpu0->cpu0_STLB TRANSLATION  ACCESS:          0 HIT:          0 MISS:          0 MSHR_MERGE:          0
cpu0->cpu0_STLB PREFETCH REQUESTED:          0 ISSUED:          0 USEFUL:          0 USELESS:          0
cpu0->cpu0_STLB AVERAGE MISS LATENCY: 705 cycles
cpu0->cpu0_L2C TOTAL        ACCESS:     117405 HIT:      22640 MISS:      94765 MSHR_MERGE:          0
cpu0->cpu0_L2C LOAD         ACCESS:      51786 HIT:       2652 MISS:      49134 MSHR_MERGE:          0
cpu0->cpu0_L2C RFO          ACCESS:      31542 HIT:       1766 MISS:      29776 MSHR_MERGE:          0
cpu0->cpu0_L2C PREFETCH     ACCESS:          0 HIT:          0 MISS:          0 MSHR_MERGE:          0
cpu0->cpu0_L2C WRITE        ACCESS:      31942 HIT:      17985 MISS:      13957 MSHR_MERGE:          0
cpu0->cpu0_L2C TRANSLATION  ACCESS:       2135 HIT:        237 MISS:       1898 MSHR_MERGE:          0
cpu0->cpu0_L2C PREFETCH REQUESTED:          0 ISSUED:          0 USEFUL:          0 USELESS:          0
cpu0->cpu0_L2C AVERAGE MISS LATENCY: 177.4 cycles
cpu0->cpu0_L1I TOTAL        ACCESS:     567763 HIT:     567763 MISS:          0 MSHR_MERGE:          0
cpu0->cpu0_L1I LOAD         ACCESS:     567763 HIT:     567763 MISS:          0 MSHR_MERGE:          0
cpu0->cpu0_L1I RFO          ACCESS:          0 HIT:          0 MISS:          0 MSHR_MERGE:          0
cpu0->cpu0_L1I PREFETCH     ACCESS:          0 HIT:          0 MISS:          0 MSHR_MERGE:          0
cpu0->cpu0_L1I WRITE        ACCESS:          0 HIT:          0 MISS:          0 MSHR_MERGE:          0
cpu0->cpu0_L1I TRANSLATION  ACCESS:          0 HIT:          0 MISS:          0 MSHR_MERGE:          0
cpu0->cpu0_L1I PREFETCH REQUESTED:          0 ISSUED:          0 USEFUL:          0 USELESS:          0
cpu0->cpu0_L1I AVERAGE MISS LATENCY: - cycles
cpu0->cpu0_L1D TOTAL        ACCESS:    1705965 HIT:    1545387 MISS:     160578 MSHR_MERGE:      75079
cpu0->cpu0_L1D LOAD         ACCESS:     789168 HIT:     736732 MISS:      52436 MSHR_MERGE:        649
cpu0->cpu0_L1D RFO          ACCESS:          0 HIT:          0 MISS:          0 MSHR_MERGE:          0
cpu0->cpu0_L1D PREFETCH     ACCESS:          0 HIT:          0 MISS:          0 MSHR_MERGE:          0
cpu0->cpu0_L1D WRITE        ACCESS:     914650 HIT:     808644 MISS:     106006 MSHR_MERGE:      74429
cpu0->cpu0_L1D TRANSLATION  ACCESS:       2147 HIT:         11 MISS:       2136 MSHR_MERGE:          1
cpu0->cpu0_L1D PREFETCH REQUESTED:          0 ISSUED:          0 USEFUL:          0 USELESS:          0
cpu0->cpu0_L1D AVERAGE MISS LATENCY: 204.9 cycles
cpu0->cpu0_ITLB TOTAL        ACCESS:     454020 HIT:     454020 MISS:          0 MSHR_MERGE:          0
cpu0->cpu0_ITLB LOAD         ACCESS:     454020 HIT:     454020 MISS:          0 MSHR_MERGE:          0
cpu0->cpu0_ITLB RFO          ACCESS:          0 HIT:          0 MISS:          0 MSHR_MERGE:          0
cpu0->cpu0_ITLB PREFETCH     ACCESS:          0 HIT:          0 MISS:          0 MSHR_MERGE:          0
cpu0->cpu0_ITLB WRITE        ACCESS:          0 HIT:          0 MISS:          0 MSHR_MERGE:          0
cpu0->cpu0_ITLB TRANSLATION  ACCESS:          0 HIT:          0 MISS:          0 MSHR_MERGE:          0
cpu0->cpu0_ITLB PREFETCH REQUESTED:          0 ISSUED:          0 USEFUL:          0 USELESS:          0
cpu0->cpu0_ITLB AVERAGE MISS LATENCY: - cycles
cpu0->cpu0_DTLB TOTAL        ACCESS:    1575886 HIT:    1566591 MISS:       9295 MSHR_MERGE:       1031
cpu0->cpu0_DTLB LOAD         ACCESS:    1575886 HIT:    1566591 MISS:       9295 MSHR_MERGE:       1031
cpu0->cpu0_DTLB RFO          ACCESS:          0 HIT:          0 MISS:          0 MSHR_MERGE:          0
cpu0->cpu0_DTLB PREFETCH     ACCESS:          0 HIT:          0 MISS:          0 MSHR_MERGE:          0
cpu0->cpu0_DTLB WRITE        ACCESS:          0 HIT:          0 MISS:          0 MSHR_MERGE:          0
cpu0->cpu0_DTLB TRANSLATION  ACCESS:          0 HIT:          0 MISS:          0 MSHR_MERGE:          0
cpu0->cpu0_DTLB PREFETCH REQUESTED:          0 ISSUED:          0 USEFUL:          0 USELESS:          0
cpu0->cpu0_DTLB AVERAGE MISS LATENCY: 96.59 cycles
cpu0->LLC TOTAL        ACCESS:     108446 HIT:      35089 MISS:      73357 MSHR_MERGE:          0
cpu0->LLC LOAD         ACCESS:      49134 HIT:      10846 MISS:      38288 MSHR_MERGE:          0
cpu0->LLC RFO          ACCESS:      29776 HIT:          5 MISS:      29771 MSHR_MERGE:          0
cpu0->LLC PREFETCH     ACCESS:          0 HIT:          0 MISS:          0 MSHR_MERGE:          0
cpu0->LLC WRITE        ACCESS:      27638 HIT:      23575 MISS:       4063 MSHR_MERGE:          0
cpu0->LLC TRANSLATION  ACCESS:       1898 HIT:        663 MISS:       1235 MSHR_MERGE:          0
cpu0->LLC PREFETCH REQUESTED:          0 ISSUED:          0 USEFUL:          0 USELESS:          0
cpu0->LLC AVERAGE MISS LATENCY: 211.4 cycles

DRAM Statistics

Channel 0 RQ ROW_BUFFER_HIT:          0
  ROW_BUFFER_MISS:      69294
  AVG DBUS CONGESTED CYCLE: 11.65
Channel 0 WQ ROW_BUFFER_HIT:       7265
  ROW_BUFFER_MISS:      12282
  FULL:          0
Channel 0 REFRESHES ISSUED:        480
