[VMEM] WARNING: physical memory size is smaller than virtual memory size.

*** ChampSim Multicore Out-of-Order Simulator ***
Warmup Instructions: 1000000
Simulation Instructions: 5000000
Number of CPUs: 1
Page size: 4096

Off-chip DRAM Size: 16 GiB Channels: 1 Width: 64-bit Data Rate: 3205 MT/s
Warmup finished CPU 0 instructions: 1000003 cycles: 556103 cumulative IPC: 1.798 (Simulation time: 00 hr 00 min 05 sec)
Warmup complete CPU 0 instructions: 1000003 cycles: 556103 cumulative IPC: 1.798 (Simulation time: 00 hr 00 min 05 sec)
Simulation finished CPU 0 instructions: 5000002 cycles: 20879745 cumulative IPC: 0.2395 (Simulation time: 00 hr 02 min 21 sec)
Simulation complete CPU 0 instructions: 5000002 cycles: 20879745 cumulative IPC: 0.2395 (Simulation time: 00 hr 02 min 21 sec)

ChampSim completed all CPUs

=== Simulation ===
CPU 0 runs traces/605.mcf_s-1536B.champsimtrace.xz

Region of Interest Statistics

CPU 0 cumulative IPC: 0.2395 instructions: 5000002 cycles: 20879745
CPU 0 Branch Prediction Accuracy: 99.97% MPKI: 0.049 Average ROB Occupancy at Mispredict: 177.3
Branch type MPKI
BRANCH_DIRECT_JUMP: 0
BRANCH_INDIRECT: 0
BRANCH_CONDITIONAL: 0.049
BRANCH_DIRECT_CALL: 0
BRANCH_INDIRECT_CALL: 0
BRANCH_RETURN: 0

cpu0->cpu0_STLB TOTAL        ACCESS:     152429 HIT:      40390 MISS:     112039 MSHR_MERGE:          0
cpu0->cpu0_STLB LOAD         ACCESS:     152429 HIT:      40390 MISS:     112039 MSHR_MERGE:          0
cpu0->cpu0_STLB RFO          ACCESS:          0 HIT:          0 MISS:          0 MSHR_MERGE:          0
cpu0->cpu0_STLB PREFETCH     ACCESS:          0 HIT:          0 MISS:          0 MSHR_MERGE:          0
cpu0->cpu0_STLB WRITE        ACCESS:          0 HIT:          0 MISS:          0 MSHR_MERGE:          0
cpu0->cpu0_STLB TRANSLATION  ACCESS:          0 HIT:          0 MISS:          0 MSHR_MERGE:          0
cpu0->cpu0_STLB PREFETCH REQUESTED:          0 ISSUED:          0 USEFUL:          0 USELESS:          0
cpu0->cpu0_STLB AVERAGE MISS LATENCY: 87.42 cycles
cpu0->cpu0_L2C TOTAL        ACCESS:     572903 HIT:     158866 MISS:     414037 MSHR_MERGE:          0
cpu0->cpu0_L2C LOAD         ACCESS:     223276 HIT:      65257 MISS:     158019 MSHR_MERGE:          0
cpu0->cpu0_L2C RFO          ACCESS:      14424 HIT:        554 MISS:      13870 MSHR_MERGE:          0
cpu0->cpu0_L2C PREFETCH     ACCESS:          0 HIT:          0 MISS:          0 MSHR_MERGE:          0
cpu0->cpu0_L2C WRITE        ACCESS:     111423 HIT:      55297 MISS:      56126 MSHR_MERGE:          0
cpu0->cpu0_L2C TRANSLATION  ACCESS:     223780 HIT:      37758 MISS:     186022 MSHR_MERGE:          0
cpu0->cpu0_L2C PREFETCH REQUESTED:          0 ISSUED:          0 USEFUL:          0 USELESS:          0
cpu0->cpu0_L2C AVERAGE MISS LATENCY: 89.15 cycles
cpu0->cpu0_L1I TOTAL        ACCESS:    1112374 HIT:    1112374 MISS:          0 MSHR_MERGE:          0
cpu0->cpu0_L1I LOAD         ACCESS:    1112374 HIT:    1112374 MISS:          0 MSHR_MERGE:          0
cpu0->cpu0_L1I RFO          ACCESS:          0 HIT:          0 MISS:          0 MSHR_MERGE:          0
cpu0->cpu0_L1I PREFETCH     ACCESS:          0 HIT:          0 MISS:          0 MSHR_MERGE:          0
cpu0->cpu0_L1I WRITE        ACCESS:          0 HIT:          0 MISS:          0 MSHR_MERGE:          0
cpu0->cpu0_L1I TRANSLATION  ACCESS:          0 HIT:          0 MISS:          0 MSHR_MERGE:          0
cpu0->cpu0_L1I PREFETCH REQUESTED:          0 ISSUED:          0 USEFUL:          0 USELESS:          0
cpu0->cpu0_L1I AVERAGE MISS LATENCY: - cycles
cpu0->cpu0_L1D TOTAL        ACCESS:    1460928 HIT:     830777 MISS:     630151 MSHR_MERGE:     168668
cpu0->cpu0_L1D LOAD         ACCESS:     998305 HIT:     608242 MISS:     390063 MSHR_MERGE:     166787
cpu0->cpu0_L1D RFO          ACCESS:          0 HIT:          0 MISS:          0 MSHR_MERGE:          0
cpu0->cpu0_L1D PREFETCH     ACCESS:          0 HIT:          0 MISS:          0 MSHR_MERGE:          0
cpu0->cpu0_L1D WRITE        ACCESS:     221714 HIT:     207278 MISS:      14436 MSHR_MERGE:          9
cpu0->cpu0_L1D TRANSLATION  ACCESS:     240909 HIT:      15257 MISS:     225652 MSHR_MERGE:       1872
cpu0->cpu0_L1D PREFETCH REQUESTED:          0 ISSUED:          0 USEFUL:          0 USELESS:          0
cpu0->cpu0_L1D AVERAGE MISS LATENCY: 88.38 cycles
cpu0->cpu0_ITLB TOTAL        ACCESS:     997106 HIT:     997106 MISS:          0 MSHR_MERGE:          0
cpu0->cpu0_ITLB LOAD         ACCESS:     997106 HIT:     997106 MISS:          0 MSHR_MERGE:          0
cpu0->cpu0_ITLB RFO          ACCESS:          0 HIT:          0 MISS:          0 MSHR_MERGE:          0
cpu0->cpu0_ITLB PREFETCH     ACCESS:          0 HIT:          0 MISS:          0 MSHR_MERGE:          0
cpu0->cpu0_ITLB WRITE        ACCESS:          0 HIT:          0 MISS:          0 MSHR_MERGE:          0
cpu0->cpu0_ITLB TRANSLATION  ACCESS:          0 HIT:          0 MISS:          0 MSHR_MERGE:          0
cpu0->cpu0_ITLB PREFETCH REQUESTED:          0 ISSUED:          0 USEFUL:          0 USELESS:          0
cpu0->cpu0_ITLB AVERAGE MISS LATENCY: - cycles
cpu0->cpu0_DTLB TOTAL        ACCESS:    1212246 HIT:     859249 MISS:     352997 MSHR_MERGE:     200569
cpu0->cpu0_DTLB LOAD         ACCESS:    1212246 HIT:     859249 MISS:     352997 MSHR_MERGE:     200569
cpu0->cpu0_DTLB RFO          ACCESS:          0 HIT:          0 MISS:          0 MSHR_MERGE:          0
cpu0->cpu0_DTLB PREFETCH     ACCESS:          0 HIT:          0 MISS:          0 MSHR_MERGE:          0
cpu0->cpu0_DTLB WRITE        ACCESS:          0 HIT:          0 MISS:          0 MSHR_MERGE:          0
cpu0->cpu0_DTLB TRANSLATION  ACCESS:          0 HIT:          0 MISS:          0 MSHR_MERGE:          0
cpu0->cpu0_DTLB PREFETCH REQUESTED:          0 ISSUED:          0 USEFUL:          0 USELESS:          0
cpu0->cpu0_DTLB AVERAGE MISS LATENCY: 69.99 cycles
cpu0->LLC TOTAL        ACCESS:     467779 HIT:     323347 MISS:     144432 MSHR_MERGE:          0
cpu0->LLC LOAD         ACCESS:     158019 HIT:      31031 MISS:     126988 MSHR_MERGE:          0
cpu0->LLC RFO          ACCESS:      13870 HIT:      13870 MISS:          0 MSHR_MERGE:          0
cpu0->LLC PREFETCH     ACCESS:          0 HIT:          0 MISS:          0 MSHR_MERGE:          0
cpu0->LLC WRITE        ACCESS:     109869 HIT:     102785 MISS:       7084 MSHR_MERGE:          0
cpu0->LLC TRANSLATION  ACCESS:     186021 HIT:     175661 MISS:      10360 MSHR_MERGE:          0
cpu0->LLC PREFETCH REQUESTED:          0 ISSUED:          0 USEFUL:          0 USELESS:          0
cpu0->LLC AVERAGE MISS LATENCY: 216.3 cycles

DRAM Statistics

Channel 0 RQ ROW_BUFFER_HIT:         29
  ROW_BUFFER_MISS:     137319
  AVG DBUS CONGESTED CYCLE: 5.965
Channel 0 WQ ROW_BUFFER_HIT:      35602
  ROW_BUFFER_MISS:      73367
  FULL:          0
Channel 0 REFRESHES ISSUED:       1740
