[VMEM] WARNING: physical memory size is smaller than virtual memory size.

*** ChampSim Multicore Out-of-Order Simulator ***
Warmup Instructions: 1000000
Simulation Instructions: 5000000
Number of CPUs: 1
Page size: 4096

Off-chip DRAM Size: 16 GiB Channels: 1 Width: 64-bit Data Rate: 3205 MT/s
Warmup finished CPU 0 instructions: 1000002 cycles: 315620 cumulative IPC: 3.168 (Simulation time: 00 hr 00 min 03 sec)
Warmup complete CPU 0 instructions: 1000002 cycles: 315620 cumulative IPC: 3.168 (Simulation time: 00 hr 00 min 03 sec)
Simulation finished CPU 0 instructions: 5000003 cycles: 3041812 cumulative IPC: 1.644 (Simulation time: 00 hr 00 min 29 sec)
Simulation complete CPU 0 instructions: 5000003 cycles: 3041812 cumulative IPC: 1.644 (Simulation time: 00 hr 00 min 29 sec)

ChampSim completed all CPUs

=== Simulation ===
CPU 0 runs traces/607.cactuBSSN_s-2421B.champsimtrace.xz

Region of Interest Statistics

CPU 0 cumulative IPC: 1.644 instructions: 5000003 cycles: 3041812
CPU 0 Branch Prediction Accuracy: 91.82% MPKI: 0.7284 Average ROB Occupancy at Mispredict: 323.1
Branch type MPKI
BRANCH_DIRECT_JUMP: 0
BRANCH_INDIRECT: 0
BRANCH_CONDITIONAL: 0.3648
BRANCH_DIRECT_CALL: 0
BRANCH_INDIRECT_CALL: 0
BRANCH_RETURN: 0.3636

cpu0->cpu0_STLB TOTAL        ACCESS:     191762 HIT:     191544 MISS:        218 MSHR_MERGE:          0
cpu0->cpu0_STLB LOAD         ACCESS:     191762 HIT:     191544 MISS:        218 MSHR_MERGE:          0
cpu0->cpu0_STLB RFO          ACCESS:          0 HIT:          0 MISS:          0 MSHR_MERGE:          0
cpu0->cpu0_STLB PREFETCH     ACCESS:          0 HIT:          0 MISS:          0 MSHR_MERGE:          0
cpu0->cpu0_STLB WRITE        ACCESS:          0 HIT:          0 MISS:          0 MSHR_MERGE:          0
cpu0->cpu0_STLB TRANSLATION  ACCESS:          0 HIT:          0 MISS:          0 MSHR_MERGE:          0
cpu0->cpu0_STLB PREFETCH REQUESTED:          0 ISSUED:          0 USEFUL:          0 USELESS:          0
cpu0->cpu0_STLB AVERAGE MISS LATENCY: 812.9 cycles
cpu0->cpu0_L2C TOTAL        ACCESS:     531916 HIT:     395353 MISS:     136563 MSHR_MERGE:          0
cpu0->cpu0_L2C LOAD         ACCESS:     467027 HIT:     349851 MISS:     117176 MSHR_MERGE:          0
cpu0->cpu0_L2C RFO          ACCESS:      30590 HIT:      20413 MISS:      10177 MSHR_MERGE:          0
cpu0->cpu0_L2C PREFETCH     ACCESS:          0 HIT:          0 MISS:          0 MSHR_MERGE:          0
cpu0->cpu0_L2C WRITE        ACCESS:      33755 HIT:      25065 MISS:       8690 MSHR_MERGE:          0
cpu0->cpu0_L2C TRANSLATION  ACCESS:        544 HIT:         24 MISS:        520 MSHR_MERGE:          0
cpu0->cpu0_L2C PREFETCH REQUESTED:          0 ISSUED:          0 USEFUL:          0 USELESS:          0
cpu0->cpu0_L2C AVERAGE MISS LATENCY: 35.58 cycles
cpu0->cpu0_L1I TOTAL        ACCESS:    1110205 HIT:     858536 MISS:     251669 MSHR_MERGE:     121674
cpu0->cpu0_L1I LOAD         ACCESS:    1110205 HIT:     858536 MISS:     251669 MSHR_MERGE:     121674
cpu0->cpu0_L1I RFO          ACCESS:          0 HIT:          0 MISS:          0 MSHR_MERGE:          0
cpu0->cpu0_L1I PREFETCH     ACCESS:          0 HIT:          0 MISS:          0 MSHR_MERGE:          0
cpu0->cpu0_L1I WRITE        ACCESS:          0 HIT:          0 MISS:          0 MSHR_MERGE:          0
cpu0->cpu0_L1I TRANSLATION  ACCESS:          0 HIT:          0 MISS:          0 MSHR_MERGE:          0
cpu0->cpu0_L1I PREFETCH REQUESTED:          0 ISSUED:          0 USEFUL:          0 USELESS:          0
cpu0->cpu0_L1I AVERAGE MISS LATENCY: 7.234 cycles
cpu0->cpu0_L1D TOTAL        ACCESS:    1921666 HIT:    1516632 MISS:     405034 MSHR_MERGE:      36858
cpu0->cpu0_L1D LOAD         ACCESS:    1520431 HIT:    1150182 MISS:     370249 MSHR_MERGE:      33209
cpu0->cpu0_L1D RFO          ACCESS:          0 HIT:          0 MISS:          0 MSHR_MERGE:          0
cpu0->cpu0_L1D PREFETCH     ACCESS:          0 HIT:          0 MISS:          0 MSHR_MERGE:          0
cpu0->cpu0_L1D WRITE        ACCESS:     400689 HIT:     366448 MISS:      34241 MSHR_MERGE:       3649
cpu0->cpu0_L1D TRANSLATION  ACCESS:        546 HIT:          2 MISS:        544 MSHR_MERGE:          0
cpu0->cpu0_L1D PREFETCH REQUESTED:          0 ISSUED:          0 USEFUL:          0 USELESS:          0
cpu0->cpu0_L1D AVERAGE MISS LATENCY: 22.58 cycles
cpu0->cpu0_ITLB TOTAL        ACCESS:     886939 HIT:     886939 MISS:          0 MSHR_MERGE:          0
cpu0->cpu0_ITLB LOAD         ACCESS:     886939 HIT:     886939 MISS:          0 MSHR_MERGE:          0
cpu0->cpu0_ITLB RFO          ACCESS:          0 HIT:          0 MISS:          0 MSHR_MERGE:          0
cpu0->cpu0_ITLB PREFETCH     ACCESS:          0 HIT:          0 MISS:          0 MSHR_MERGE:          0
cpu0->cpu0_ITLB WRITE        ACCESS:          0 HIT:          0 MISS:          0 MSHR_MERGE:          0
cpu0->cpu0_ITLB TRANSLATION  ACCESS:          0 HIT:          0 MISS:          0 MSHR_MERGE:          0
cpu0->cpu0_ITLB PREFETCH REQUESTED:          0 ISSUED:          0 USEFUL:          0 USELESS:          0
cpu0->cpu0_ITLB AVERAGE MISS LATENCY: - cycles
cpu0->cpu0_DTLB TOTAL        ACCESS:    1816826 HIT:    1604668 MISS:     212158 MSHR_MERGE:      20396
cpu0->cpu0_DTLB LOAD         ACCESS:    1816826 HIT:    1604668 MISS:     212158 MSHR_MERGE:      20396
cpu0->cpu0_DTLB RFO          ACCESS:          0 HIT:          0 MISS:          0 MSHR_MERGE:          0
cpu0->cpu0_DTLB PREFETCH     ACCESS:          0 HIT:          0 MISS:          0 MSHR_MERGE:          0
cpu0->cpu0_DTLB WRITE        ACCESS:          0 HIT:          0 MISS:          0 MSHR_MERGE:          0
cpu0->cpu0_DTLB TRANSLATION  ACCESS:          0 HIT:          0 MISS:          0 MSHR_MERGE:          0
cpu0->cpu0_DTLB PREFETCH REQUESTED:          0 ISSUED:          0 USEFUL:          0 USELESS:          0
cpu0->cpu0_DTLB AVERAGE MISS LATENCY: 5.967 cycles
cpu0->LLC TOTAL        ACCESS:     137428 HIT:     124014 MISS:      13414 MSHR_MERGE:          0
cpu0->LLC LOAD         ACCESS:     117176 HIT:     107052 MISS:      10124 MSHR_MERGE:          0
cpu0->LLC RFO          ACCESS:      10171 HIT:       7246 MISS:       2925 MSHR_MERGE:          0
cpu0->LLC PREFETCH     ACCESS:          0 HIT:          0 MISS:          0 MSHR_MERGE:          0
cpu0->LLC WRITE        ACCESS:       9561 HIT:       9561 MISS:          0 MSHR_MERGE:          0
cpu0->LLC TRANSLATION  ACCESS:        520 HIT:        155 MISS:        365 MSHR_MERGE:          0
cpu0->LLC PREFETCH REQUESTED:          0 ISSUED:          0 USEFUL:          0 USELESS:          0
cpu0->LLC AVERAGE MISS LATENCY: 215.4 cycles

DRAM Statistics

Channel 0 RQ ROW_BUFFER_HIT:          0
  ROW_BUFFER_MISS:      13414
  AVG DBUS CONGESTED CYCLE: 3.291
Channel 0 WQ ROW_BUFFER_HIT:          3
  ROW_BUFFER_MISS:         29
  FULL:          0
Channel 0 REFRESHES ISSUED:        253
