[VMEM] WARNING: physical memory size is smaller than virtual memory size.

*** ChampSim Multicore Out-of-Order Simulator ***
Warmup Instructions: 1000000
Simulation Instructions: 5000000
Number of CPUs: 1
Page size: 4096

Off-chip DRAM Size: 16 GiB Channels: 1 Width: 64-bit Data Rate: 3205 MT/s
Warmup finished CPU 0 instructions: 1000001 cycles: 336828 cumulative IPC: 2.969 (Simulation time: 00 hr 00 min 03 sec)
Warmup complete CPU 0 instructions: 1000001 cycles: 336828 cumulative IPC: 2.969 (Simulation time: 00 hr 00 min 03 sec)
Simulation finished CPU 0 instructions: 5000000 cycles: 11264698 cumulative IPC: 0.4439 (Simulation time: 00 hr 01 min 26 sec)
Simulation complete CPU 0 instructions: 5000000 cycles: 11264698 cumulative IPC: 0.4439 (Simulation time: 00 hr 01 min 26 sec)

ChampSim completed all CPUs

=== Simulation ===
CPU 0 runs traces/619.lbm_s-2676B.champsimtrace.xz

Region of Interest Statistics

CPU 0 cumulative IPC: 0.4439 instructions: 5000000 cycles: 11264698
CPU 0 Branch Prediction Accuracy: 95.45% MPKI: 0.7996 Average ROB Occupancy at Mispredict: 213.1
Branch type MPKI
BRANCH_DIRECT_JUMP: 0
BRANCH_INDIRECT: 0
BRANCH_CONDITIONAL: 0.7996
BRANCH_DIRECT_CALL: 0
BRANCH_INDIRECT_CALL: 0
BRANCH_RETURN: 0

cpu0->cpu0_STLB TOTAL        ACCESS:       6665 HIT:       3049 MISS:       3616 MSHR_MERGE:          0
cpu0->cpu0_STLB LOAD         ACCESS:       6665 HIT:       3049 MISS:       3616 MSHR_MERGE:          0
cpu0->cpu0_STLB RFO          ACCESS:          0 HIT:          0 MISS:          0 MSHR_MERGE:          0
cpu0->cpu0_STLB PREFETCH     ACCESS:          0 HIT:          0 MISS:          0 MSHR_MERGE:          0
cpu0->cpu0_STLB WRITE        ACCESS:          0 HIT:          0 MISS:          0 MSHR_MERGE:          0
cpu0->cpu0_STLB TRANSLATION  ACCESS:          0 HIT:          0 MISS:          0 MSHR_MERGE:          0
cpu0->cpu0_STLB PREFETCH REQUESTED:          0 ISSUED:          0 USEFUL:          0 USELESS:          0
cpu0->cpu0_STLB AVERAGE MISS LATENCY: 1112 cycles
cpu0->cpu0_L2C TOTAL        ACCESS:     714446 HIT:     195729 MISS:     518717 MSHR_MERGE:          0
cpu0->cpu0_L2C LOAD         ACCESS:      57859 HIT:          0 MISS:      57859 MSHR_MERGE:          0
cpu0->cpu0_L2C RFO          ACCESS:     326258 HIT:      60314 MISS:     265944 MSHR_MERGE:          0
cpu0->cpu0_L2C PREFETCH     ACCESS:          0 HIT:          0 MISS:          0 MSHR_MERGE:          0
cpu0->cpu0_L2C WRITE        ACCESS:     326253 HIT:     135415 MISS:     190838 MSHR_MERGE:          0
cpu0->cpu0_L2C TRANSLATION  ACCESS:       4076 HIT:          0 MISS:       4076 MSHR_MERGE:          0
cpu0->cpu0_L2C PREFETCH REQUESTED:          0 ISSUED:          0 USEFUL:          0 USELESS:          0
cpu0->cpu0_L2C AVERAGE MISS LATENCY: 229.3 cycles
cpu0->cpu0_L1I TOTAL        ACCESS:     784771 HIT:     784771 MISS:          0 MSHR_MERGE:          0
cpu0->cpu0_L1I LOAD         ACCESS:     784771 HIT:     784771 MISS:          0 MSHR_MERGE:          0
cpu0->cpu0_L1I RFO          ACCESS:          0 HIT:          0 MISS:          0 MSHR_MERGE:          0
cpu0->cpu0_L1I PREFETCH     ACCESS:          0 HIT:          0 MISS:          0 MSHR_MERGE:          0
cpu0->cpu0_L1I WRITE        ACCESS:          0 HIT:          0 MISS:          0 MSHR_MERGE:          0
cpu0->cpu0_L1I TRANSLATION  ACCESS:          0 HIT:          0 MISS:          0 MSHR_MERGE:          0
cpu0->cpu0_L1I PREFETCH REQUESTED:          0 ISSUED:          0 USEFUL:          0 USELESS:          0
cpu0->cpu0_L1I AVERAGE MISS LATENCY: - cycles
cpu0->cpu0_L1D TOTAL        ACCESS:    1236305 HIT:     757017 MISS:     479288 MSHR_MERGE:      91089
cpu0->cpu0_L1D LOAD         ACCESS:     319321 HIT:     187183 MISS:     132138 MSHR_MERGE:      74279
cpu0->cpu0_L1D RFO          ACCESS:          0 HIT:          0 MISS:          0 MSHR_MERGE:          0
cpu0->cpu0_L1D PREFETCH     ACCESS:          0 HIT:          0 MISS:          0 MSHR_MERGE:          0
cpu0->cpu0_L1D WRITE        ACCESS:     909744 HIT:     566670 MISS:     343074 MSHR_MERGE:      16810
cpu0->cpu0_L1D TRANSLATION  ACCESS:       7240 HIT:       3164 MISS:       4076 MSHR_MERGE:          0
cpu0->cpu0_L1D PREFETCH REQUESTED:          0 ISSUED:          0 USEFUL:          0 USELESS:          0
cpu0->cpu0_L1D AVERAGE MISS LATENCY: 314 cycles
cpu0->cpu0_ITLB TOTAL        ACCESS:     581712 HIT:     581712 MISS:          0 MSHR_MERGE:          0
cpu0->cpu0_ITLB LOAD         ACCESS:     581712 HIT:     581712 MISS:          0 MSHR_MERGE:          0
cpu0->cpu0_ITLB RFO          ACCESS:          0 HIT:          0 MISS:          0 MSHR_MERGE:          0
cpu0->cpu0_ITLB PREFETCH     ACCESS:          0 HIT:          0 MISS:          0 MSHR_MERGE:          0
cpu0->cpu0_ITLB WRITE        ACCESS:          0 HIT:          0 MISS:          0 MSHR_MERGE:          0
cpu0->cpu0_ITLB TRANSLATION  ACCESS:          0 HIT:          0 MISS:          0 MSHR_MERGE:          0
cpu0->cpu0_ITLB PREFETCH REQUESTED:          0 ISSUED:          0 USEFUL:          0 USELESS:          0
cpu0->cpu0_ITLB AVERAGE MISS LATENCY: - cycles
cpu0->cpu0_DTLB TOTAL        ACCESS:    1159708 HIT:    1135881 MISS:      23827 MSHR_MERGE:      17162
cpu0->cpu0_DTLB LOAD         ACCESS:    1159708 HIT:    1135881 MISS:      23827 MSHR_MERGE:      17162
cpu0->cpu0_DTLB RFO          ACCESS:          0 HIT:          0 MISS:          0 MSHR_MERGE:          0
cpu0->cpu0_DTLB PREFETCH     ACCESS:          0 HIT:          0 MISS:          0 MSHR_MERGE:          0
cpu0->cpu0_DTLB WRITE        ACCESS:          0 HIT:          0 MISS:          0 MSHR_MERGE:          0
cpu0->cpu0_DTLB TRANSLATION  ACCESS:          0 HIT:          0 MISS:          0 MSHR_MERGE:          0
cpu0->cpu0_DTLB PREFETCH REQUESTED:          0 ISSUED:          0 USEFUL:          0 USELESS:          0
cpu0->cpu0_DTLB AVERAGE MISS LATENCY: 609.1 cycles
cpu0->LLC TOTAL        ACCESS:     593945 HIT:     336949 MISS:     256996 MSHR_MERGE:          0
cpu0->LLC LOAD         ACCESS:      57859 HIT:          1 MISS:      57858 MSHR_MERGE:          0
cpu0->LLC RFO          ACCESS:     265944 HIT:      92386 MISS:     173558 MSHR_MERGE:          0
cpu0->LLC PREFETCH     ACCESS:          0 HIT:          0 MISS:          0 MSHR_MERGE:          0
cpu0->LLC WRITE        ACCESS:     266066 HIT:     244560 MISS:      21506 MSHR_MERGE:          0
cpu0->LLC TRANSLATION  ACCESS:       4076 HIT:          2 MISS:       4074 MSHR_MERGE:          0
cpu0->LLC PREFETCH REQUESTED:          0 ISSUED:          0 USEFUL:          0 USELESS:          0
cpu0->LLC AVERAGE MISS LATENCY: 440.4 cycles

DRAM Statistics

Channel 0 RQ ROW_BUFFER_HIT:      13051
  ROW_BUFFER_MISS:     222426
  AVG DBUS CONGESTED CYCLE: 7.3
Channel 0 WQ ROW_BUFFER_HIT:      27424
  ROW_BUFFER_MISS:     150509
  FULL:          0
Channel 0 REFRESHES ISSUED:        938
