[VMEM] WARNING: physical memory size is smaller than virtual memory size.

*** ChampSim Multicore Out-of-Order Simulator ***
Warmup Instructions: 1000000
Simulation Instructions: 5000000
Number of CPUs: 1
Page size: 4096

Off-chip DRAM Size: 16 GiB Channels: 1 Width: 64-bit Data Rate: 3205 MT/s
Warmup finished CPU 0 instructions: 1000003 cycles: 782095 cumulative IPC: 1.279 (Simulation time: 00 hr 00 min 07 sec)
Warmup complete CPU 0 instructions: 1000003 cycles: 782095 cumulative IPC: 1.279 (Simulation time: 00 hr 00 min 07 sec)
Simulation finished CPU 0 instructions: 5000003 cycles: 21405153 cumulative IPC: 0.2336 (Simulation time: 00 hr 01 min 46 sec)
Simulation complete CPU 0 instructions: 5000003 cycles: 21405153 cumulative IPC: 0.2336 (Simulation time: 00 hr 01 min 46 sec)

ChampSim completed all CPUs

=== Simulation ===
CPU 0 runs traces/620.omnetpp_s-141B.champsimtrace.xz

Region of Interest Statistics

CPU 0 cumulative IPC: 0.2336 instructions: 5000003 cycles: 21405153
CPU 0 Branch Prediction Accuracy: 93.13% MPKI: 14.39 Average ROB Occupancy at Mispredict: 43.24
Branch type MPKI
BRANCH_DIRECT_JUMP: 0.8132
BRANCH_INDIRECT: 0.3712
BRANCH_CONDITIONAL: 11.89
BRANCH_DIRECT_CALL: 0.0072
BRANCH_INDIRECT_CALL: 0.8716
BRANCH_RETURN: 0.4386

cpu0->cpu0_STLB TOTAL        ACCESS:     111762 HIT:      86475 MISS:      25287 MSHR_MERGE:          0
cpu0->cpu0_STLB LOAD         ACCESS:     111762 HIT:      86475 MISS:      25287 MSHR_MERGE:          0
cpu0->cpu0_STLB RFO          ACCESS:          0 HIT:          0 MISS:          0 MSHR_MERGE:          0
cpu0->cpu0_STLB PREFETCH     ACCESS:          0 HIT:          0 MISS:          0 MSHR_MERGE:          0
cpu0->cpu0_STLB WRITE        ACCESS:          0 HIT:          0 MISS:          0 MSHR_MERGE:          0
cpu0->cpu0_STLB TRANSLATION  ACCESS:          0 HIT:          0 MISS:          0 MSHR_MERGE:          0
cpu0->cpu0_STLB PREFETCH REQUESTED:          0 ISSUED:          0 USEFUL:          0 USELESS:          0
cpu0->cpu0_STLB AVERAGE MISS LATENCY: 487.8 cycles
cpu0->cpu0_L2C TOTAL        ACCESS:     206602 HIT:      74534 MISS:     132068 MSHR_MERGE:          0
cpu0->cpu0_L2C LOAD         ACCESS:      89512 HIT:      25892 MISS:      63620 MSHR_MERGE:          0
cpu0->cpu0_L2C RFO          ACCESS:      12197 HIT:       4137 MISS:       8060 MSHR_MERGE:          0
cpu0->cpu0_L2C PREFETCH     ACCESS:          0 HIT:          0 MISS:          0 MSHR_MERGE:          0
cpu0->cpu0_L2C WRITE        ACCESS:      48528 HIT:      32403 MISS:      16125 MSHR_MERGE:          0
cpu0->cpu0_L2C TRANSLATION  ACCESS:      56365 HIT:      12102 MISS:      44263 MSHR_MERGE:          0
cpu0->cpu0_L2C PREFETCH REQUESTED:          0 ISSUED:          0 USEFUL:          0 USELESS:          0
cpu0->cpu0_L2C AVERAGE MISS LATENCY: 134 cycles
cpu0->cpu0_L1I TOTAL        ACCESS:     676197 HIT:     671433 MISS:       4764 MSHR_MERGE:       1236
cpu0->cpu0_L1I LOAD         ACCESS:     676197 HIT:     671433 MISS:       4764 MSHR_MERGE:       1236
cpu0->cpu0_L1I RFO          ACCESS:          0 HIT:          0 MISS:          0 MSHR_MERGE:          0
cpu0->cpu0_L1I PREFETCH     ACCESS:          0 HIT:          0 MISS:          0 MSHR_MERGE:          0
cpu0->cpu0_L1I WRITE        ACCESS:          0 HIT:          0 MISS:          0 MSHR_MERGE:          0
cpu0->cpu0_L1I TRANSLATION  ACCESS:          0 HIT:          0 MISS:          0 MSHR_MERGE:          0
cpu0->cpu0_L1I PREFETCH REQUESTED:          0 ISSUED:          0 USEFUL:          0 USELESS:          0
cpu0->cpu0_L1I AVERAGE MISS LATENCY: 19.2 cycles
cpu0->cpu0_L1D TOTAL        ACCESS:    2039227 HIT:    1834957 MISS:     204270 MSHR_MERGE:      49724
cpu0->cpu0_L1D LOAD         ACCESS:    1067108 HIT:     957082 MISS:     110026 MSHR_MERGE:      24042
cpu0->cpu0_L1D RFO          ACCESS:          0 HIT:          0 MISS:          0 MSHR_MERGE:          0
cpu0->cpu0_L1D PREFETCH     ACCESS:          0 HIT:          0 MISS:          0 MSHR_MERGE:          0
cpu0->cpu0_L1D WRITE        ACCESS:     911061 HIT:     873348 MISS:      37713 MSHR_MERGE:      25516
cpu0->cpu0_L1D TRANSLATION  ACCESS:      61058 HIT:       4527 MISS:      56531 MSHR_MERGE:        166
cpu0->cpu0_L1D PREFETCH REQUESTED:          0 ISSUED:          0 USEFUL:          0 USELESS:          0
cpu0->cpu0_L1D AVERAGE MISS LATENCY: 122.6 cycles
cpu0->cpu0_ITLB TOTAL        ACCESS:     596613 HIT:     581456 MISS:      15157 MSHR_MERGE:       7347
cpu0->cpu0_ITLB LOAD         ACCESS:     596613 HIT:     581456 MISS:      15157 MSHR_MERGE:       7347
cpu0->cpu0_ITLB RFO          ACCESS:          0 HIT:          0 MISS:          0 MSHR_MERGE:          0
cpu0->cpu0_ITLB PREFETCH     ACCESS:          0 HIT:          0 MISS:          0 MSHR_MERGE:          0
cpu0->cpu0_ITLB WRITE        ACCESS:          0 HIT:          0 MISS:          0 MSHR_MERGE:          0
cpu0->cpu0_ITLB TRANSLATION  ACCESS:          0 HIT:          0 MISS:          0 MSHR_MERGE:          0
cpu0->cpu0_ITLB PREFETCH REQUESTED:          0 ISSUED:          0 USEFUL:          0 USELESS:          0
cpu0->cpu0_ITLB AVERAGE MISS LATENCY: 8.998 cycles
cpu0->cpu0_DTLB TOTAL        ACCESS:    1882565 HIT:    1760854 MISS:     121711 MSHR_MERGE:      17759
cpu0->cpu0_DTLB LOAD         ACCESS:    1882565 HIT:    1760854 MISS:     121711 MSHR_MERGE:      17759
cpu0->cpu0_DTLB RFO          ACCESS:          0 HIT:          0 MISS:          0 MSHR_MERGE:          0
cpu0->cpu0_DTLB PREFETCH     ACCESS:          0 HIT:          0 MISS:          0 MSHR_MERGE:          0
cpu0->cpu0_DTLB WRITE        ACCESS:          0 HIT:          0 MISS:          0 MSHR_MERGE:          0
cpu0->cpu0_DTLB TRANSLATION  ACCESS:          0 HIT:          0 MISS:          0 MSHR_MERGE:          0
cpu0->cpu0_DTLB PREFETCH REQUESTED:          0 ISSUED:          0 USEFUL:          0 USELESS:          0
cpu0->cpu0_DTLB AVERAGE MISS LATENCY: 123.6 cycles
cpu0->LLC TOTAL        ACCESS:     145928 HIT:      53797 MISS:      92131 MSHR_MERGE:          0
cpu0->LLC LOAD         ACCESS:      63620 HIT:      15064 MISS:      48556 MSHR_MERGE:          0
cpu0->LLC RFO          ACCESS:       8060 HIT:       1801 MISS:       6259 MSHR_MERGE:          0
cpu0->LLC PREFETCH     ACCESS:          0 HIT:          0 MISS:          0 MSHR_MERGE:          0
cpu0->LLC WRITE        ACCESS:      29985 HIT:      22827 MISS:       7158 MSHR_MERGE:          0
cpu0->LLC TRANSLATION  ACCESS:      44263 HIT:      14105 MISS:      30158 MSHR_MERGE:          0
cpu0->LLC PREFETCH REQUESTED:          0 ISSUED:          0 USEFUL:          0 USELESS:          0
cpu0->LLC AVERAGE MISS LATENCY: 172.2 cycles

DRAM Statistics

Channel 0 RQ ROW_BUFFER_HIT:        290
  ROW_BUFFER_MISS:      84682
  AVG DBUS CONGESTED CYCLE: 19.84
Channel 0 WQ ROW_BUFFER_HIT:       5848
  ROW_BUFFER_MISS:      13863
  FULL:          0
Channel 0 REFRESHES ISSUED:       1783
