[VMEM] WARNING: physical memory size is smaller than virtual memory size.

*** ChampSim Multicore Out-of-Order Simulator ***
Warmup Instructions: 1000000
Simulation Instructions: 5000000
Number of CPUs: 1
Page size: 4096

Off-chip DRAM Size: 16 GiB Channels: 1 Width: 64-bit Data Rate: 3205 MT/s
Warmup finished CPU 0 instructions: 1000003 cycles: 362441 cumulative IPC: 2.759 (Simulation time: 00 hr 00 min 03 sec)
Warmup complete CPU 0 instructions: 1000003 cycles: 362441 cumulative IPC: 2.759 (Simulation time: 00 hr 00 min 03 sec)
Simulation finished CPU 0 instructions: 5000002 cycles: 7618707 cumulative IPC: 0.6563 (Simulation time: 00 hr 00 min 40 sec)
Simulation complete CPU 0 instructions: 5000002 cycles: 7618707 cumulative IPC: 0.6563 (Simulation time: 00 hr 00 min 40 sec)

ChampSim completed all CPUs

=== Simulation ===
CPU 0 runs traces/623.xalancbmk_s-165B.champsimtrace.xz

Region of Interest Statistics

CPU 0 cumulative IPC: 0.6563 instructions: 5000002 cycles: 7618707
CPU 0 Branch Prediction Accuracy: 96.52% MPKI: 9.702 Average ROB Occupancy at Mispredict: 59.26
Branch type MPKI
BRANCH_DIRECT_JUMP: 0
BRANCH_INDIRECT: 0
BRANCH_CONDITIONAL: 9.701
BRANCH_DIRECT_CALL: 0
BRANCH_INDIRECT_CALL: 0
BRANCH_RETURN: 0.0002

cpu0->cpu0_STLB TOTAL        ACCESS:       1695 HIT:       1427 MISS:        268 MSHR_MERGE:          0
cpu0->cpu0_STLB LOAD         ACCESS:       1695 HIT:       1427 MISS:        268 MSHR_MERGE:          0
cpu0->cpu0_STLB RFO          ACCESS:          0 HIT:          0 MISS:          0 MSHR_MERGE:          0
cpu0->cpu0_STLB PREFETCH     ACCESS:          0 HIT:          0 MISS:          0 MSHR_MERGE:          0
cpu0->cpu0_STLB WRITE        ACCESS:          0 HIT:          0 MISS:          0 MSHR_MERGE:          0
cpu0->cpu0_STLB TRANSLATION  ACCESS:          0 HIT:          0 MISS:          0 MSHR_MERGE:          0
cpu0->cpu0_STLB PREFETCH REQUESTED:          0 ISSUED:          0 USEFUL:          0 USELESS:          0
cpu0->cpu0_STLB AVERAGE MISS LATENCY: 672.9 cycles
cpu0->cpu0_L2C TOTAL        ACCESS:      95426 HIT:      20276 MISS:      75150 MSHR_MERGE:          0
cpu0->cpu0_L2C LOAD         ACCESS:      95034 HIT:      20223 MISS:      74811 MSHR_MERGE:          0
cpu0->cpu0_L2C RFO          ACCESS:         32 HIT:          9 MISS:         23 MSHR_MERGE:          0
cpu0->cpu0_L2C PREFETCH     ACCESS:          0 HIT:          0 MISS:          0 MSHR_MERGE:          0
cpu0->cpu0_L2C WRITE        ACCESS:         46 HIT:         43 MISS:          3 MSHR_MERGE:          0
cpu0->cpu0_L2C TRANSLATION  ACCESS:        314 HIT:          1 MISS:        313 MSHR_MERGE:          0
cpu0->cpu0_L2C PREFETCH REQUESTED:          0 ISSUED:          0 USEFUL:          0 USELESS:          0
cpu0->cpu0_L2C AVERAGE MISS LATENCY: 98.82 cycles
cpu0->cpu0_L1I TOTAL        ACCESS:        162 HIT:        162 MISS:          0 MSHR_MERGE:          0
cpu0->cpu0_L1I LOAD         ACCESS:        162 HIT:        162 MISS:          0 MSHR_MERGE:          0
cpu0->cpu0_L1I RFO          ACCESS:          0 HIT:          0 MISS:          0 MSHR_MERGE:          0
cpu0->cpu0_L1I PREFETCH     ACCESS:          0 HIT:          0 MISS:          0 MSHR_MERGE:          0
cpu0->cpu0_L1I WRITE        ACCESS:          0 HIT:          0 MISS:          0 MSHR_MERGE:          0
cpu0->cpu0_L1I TRANSLATION  ACCESS:          0 HIT:          0 MISS:          0 MSHR_MERGE:          0
cpu0->cpu0_L1I PREFETCH REQUESTED:          0 ISSUED:          0 USEFUL:          0 USELESS:          0
cpu0->cpu0_L1I AVERAGE MISS LATENCY: - cycles
cpu0->cpu0_L1D TOTAL        ACCESS:    1409634 HIT:    1106024 MISS:     303610 MSHR_MERGE:     208230
cpu0->cpu0_L1D LOAD         ACCESS:    1343409 HIT:    1040257 MISS:     303152 MSHR_MERGE:     208118
cpu0->cpu0_L1D RFO          ACCESS:          0 HIT:          0 MISS:          0 MSHR_MERGE:          0
cpu0->cpu0_L1D PREFETCH     ACCESS:          0 HIT:          0 MISS:          0 MSHR_MERGE:          0
cpu0->cpu0_L1D WRITE        ACCESS:      65689 HIT:      65546 MISS:        143 MSHR_MERGE:        111
cpu0->cpu0_L1D TRANSLATION  ACCESS:        536 HIT:        221 MISS:        315 MSHR_MERGE:          1
cpu0->cpu0_L1D PREFETCH REQUESTED:          0 ISSUED:          0 USEFUL:          0 USELESS:          0
cpu0->cpu0_L1D AVERAGE MISS LATENCY: 86.66 cycles
cpu0->cpu0_ITLB TOTAL        ACCESS:        142 HIT:        142 MISS:          0 MSHR_MERGE:          0
cpu0->cpu0_ITLB LOAD         ACCESS:        142 HIT:        142 MISS:          0 MSHR_MERGE:          0
cpu0->cpu0_ITLB RFO          ACCESS:          0 HIT:          0 MISS:          0 MSHR_MERGE:          0
cpu0->cpu0_ITLB PREFETCH     ACCESS:          0 HIT:          0 MISS:          0 MSHR_MERGE:          0
cpu0->cpu0_ITLB WRITE        ACCESS:          0 HIT:          0 MISS:          0 MSHR_MERGE:          0
cpu0->cpu0_ITLB TRANSLATION  ACCESS:          0 HIT:          0 MISS:          0 MSHR_MERGE:          0
cpu0->cpu0_ITLB PREFETCH REQUESTED:          0 ISSUED:          0 USEFUL:          0 USELESS:          0
cpu0->cpu0_ITLB AVERAGE MISS LATENCY: - cycles
cpu0->cpu0_DTLB TOTAL        ACCESS:    1398838 HIT:    1394386 MISS:       4452 MSHR_MERGE:       2757
cpu0->cpu0_DTLB LOAD         ACCESS:    1398838 HIT:    1394386 MISS:       4452 MSHR_MERGE:       2757
cpu0->cpu0_DTLB RFO          ACCESS:          0 HIT:          0 MISS:          0 MSHR_MERGE:          0
cpu0->cpu0_DTLB PREFETCH     ACCESS:          0 HIT:          0 MISS:          0 MSHR_MERGE:          0
cpu0->cpu0_DTLB WRITE        ACCESS:          0 HIT:          0 MISS:          0 MSHR_MERGE:          0
cpu0->cpu0_DTLB TRANSLATION  ACCESS:          0 HIT:          0 MISS:          0 MSHR_MERGE:          0
cpu0->cpu0_DTLB PREFETCH REQUESTED:          0 ISSUED:          0 USEFUL:          0 USELESS:          0
cpu0->cpu0_DTLB AVERAGE MISS LATENCY: 111.6 cycles
cpu0->LLC TOTAL        ACCESS:      75155 HIT:      34737 MISS:      40418 MSHR_MERGE:          0
cpu0->LLC LOAD         ACCESS:      74811 HIT:      34724 MISS:      40087 MSHR_MERGE:          0
cpu0->LLC RFO          ACCESS:         23 HIT:          3 MISS:         20 MSHR_MERGE:          0
cpu0->LLC PREFETCH     ACCESS:          0 HIT:          0 MISS:          0 MSHR_MERGE:          0
cpu0->LLC WRITE        ACCESS:          8 HIT:          8 MISS:          0 MSHR_MERGE:          0
cpu0->LLC TRANSLATION  ACCESS:        313 HIT:          2 MISS:        311 MSHR_MERGE:          0
cpu0->LLC PREFETCH REQUESTED:          0 ISSUED:          0 USEFUL:          0 USELESS:          0
cpu0->LLC AVERAGE MISS LATENCY: 154.8 cycles

DRAM Statistics

Channel 0 RQ ROW_BUFFER_HIT:      10636
  ROW_BUFFER_MISS:      29782
  AVG DBUS CONGESTED CYCLE: 2.949
Channel 0 WQ ROW_BUFFER_HIT:          0
  ROW_BUFFER_MISS:          0
  FULL:          0
Channel 0 REFRESHES ISSUED:        635
