[VMEM] WARNING: physical memory size is smaller than virtual memory size.

*** ChampSim Multicore Out-of-Order Simulator ***
Warmup Instructions: 1000000
Simulation Instructions: 5000000
Number of CPUs: 1
Page size: 4096

Off-chip DRAM Size: 16 GiB Channels: 1 Width: 64-bit Data Rate: 3205 MT/s
Warmup finished CPU 0 instructions: 1000003 cycles: 369605 cumulative IPC: 2.706 (Simulation time: 00 hr 00 min 03 sec)
Warmup complete CPU 0 instructions: 1000003 cycles: 369605 cumulative IPC: 2.706 (Simulation time: 00 hr 00 min 03 sec)
Simulation finished CPU 0 instructions: 5000001 cycles: 4139777 cumulative IPC: 1.208 (Simulation time: 00 hr 00 min 27 sec)
Simulation complete CPU 0 instructions: 5000001 cycles: 4139777 cumulative IPC: 1.208 (Simulation time: 00 hr 00 min 27 sec)

ChampSim completed all CPUs

=== Simulation ===
CPU 0 runs traces/628.pop2_s-17B.champsimtrace.xz

Region of Interest Statistics

CPU 0 cumulative IPC: 1.208 instructions: 5000001 cycles: 4139777
CPU 0 Branch Prediction Accuracy: 96.39% MPKI: 4.136 Average ROB Occupancy at Mispredict: 86.78
Branch type MPKI
BRANCH_DIRECT_JUMP: 0.0532
BRANCH_INDIRECT: 0.002
BRANCH_CONDITIONAL: 4.06
BRANCH_DIRECT_CALL: 0.0116
BRANCH_INDIRECT_CALL: 0
BRANCH_RETURN: 0.009

cpu0->cpu0_STLB TOTAL        ACCESS:       4371 HIT:       4098 MISS:        273 MSHR_MERGE:          0
cpu0->cpu0_STLB LOAD         ACCESS:       4371 HIT:       4098 MISS:        273 MSHR_MERGE:          0
cpu0->cpu0_STLB RFO          ACCESS:          0 HIT:          0 MISS:          0 MSHR_MERGE:          0
cpu0->cpu0_STLB PREFETCH     ACCESS:          0 HIT:          0 MISS:          0 MSHR_MERGE:          0
cpu0->cpu0_STLB WRITE        ACCESS:          0 HIT:          0 MISS:          0 MSHR_MERGE:          0
cpu0->cpu0_STLB TRANSLATION  ACCESS:          0 HIT:          0 MISS:          0 MSHR_MERGE:          0
cpu0->cpu0_STLB PREFETCH REQUESTED:          0 ISSUED:          0 USEFUL:          0 USELESS:          0
cpu0->cpu0_STLB AVERAGE MISS LATENCY: 763.1 cycles
cpu0->cpu0_L2C TOTAL        ACCESS:     150216 HIT:     101200 MISS:      49016 MSHR_MERGE:          0
cpu0->cpu0_L2C LOAD         ACCESS:      81709 HIT:      41756 MISS:      39953 MSHR_MERGE:          0
cpu0->cpu0_L2C RFO          ACCESS:      27317 HIT:      22798 MISS:       4519 MSHR_MERGE:          0
cpu0->cpu0_L2C PREFETCH     ACCESS:          0 HIT:          0 MISS:          0 MSHR_MERGE:          0
cpu0->cpu0_L2C WRITE        ACCESS:      40616 HIT:      36618 MISS:       3998 MSHR_MERGE:          0
cpu0->cpu0_L2C TRANSLATION  ACCESS:        574 HIT:         28 MISS:        546 MSHR_MERGE:          0
cpu0->cpu0_L2C PREFETCH REQUESTED:          0 ISSUED:          0 USEFUL:          0 USELESS:          0
cpu0->cpu0_L2C AVERAGE MISS LATENCY: 75.45 cycles
cpu0->cpu0_L1I TOTAL        ACCESS:     373703 HIT:     362955 MISS:      10748 MSHR_MERGE:       4848
cpu0->cpu0_L1I LOAD         ACCESS:     373703 HIT:     362955 MISS:      10748 MSHR_MERGE:       4848
cpu0->cpu0_L1I RFO          ACCESS:          0 HIT:          0 MISS:          0 MSHR_MERGE:          0
cpu0->cpu0_L1I PREFETCH     ACCESS:          0 HIT:          0 MISS:          0 MSHR_MERGE:          0
cpu0->cpu0_L1I WRITE        ACCESS:          0 HIT:          0 MISS:          0 MSHR_MERGE:          0
cpu0->cpu0_L1I TRANSLATION  ACCESS:          0 HIT:          0 MISS:          0 MSHR_MERGE:          0
cpu0->cpu0_L1I PREFETCH REQUESTED:          0 ISSUED:          0 USEFUL:          0 USELESS:          0
cpu0->cpu0_L1I AVERAGE MISS LATENCY: 32.65 cycles
cpu0->cpu0_L1D TOTAL        ACCESS:    1305382 HIT:    1073705 MISS:     231677 MSHR_MERGE:     127977
cpu0->cpu0_L1D LOAD         ACCESS:     925515 HIT:     779814 MISS:     145701 MSHR_MERGE:      69892
cpu0->cpu0_L1D RFO          ACCESS:          0 HIT:          0 MISS:          0 MSHR_MERGE:          0
cpu0->cpu0_L1D PREFETCH     ACCESS:          0 HIT:          0 MISS:          0 MSHR_MERGE:          0
cpu0->cpu0_L1D WRITE        ACCESS:     379228 HIT:     293840 MISS:      85388 MSHR_MERGE:      58071
cpu0->cpu0_L1D TRANSLATION  ACCESS:        639 HIT:         51 MISS:        588 MSHR_MERGE:         14
cpu0->cpu0_L1D PREFETCH REQUESTED:          0 ISSUED:          0 USEFUL:          0 USELESS:          0
cpu0->cpu0_L1D AVERAGE MISS LATENCY: 42.55 cycles
cpu0->cpu0_ITLB TOTAL        ACCESS:     304336 HIT:     303707 MISS:        629 MSHR_MERGE:        381
cpu0->cpu0_ITLB LOAD         ACCESS:     304336 HIT:     303707 MISS:        629 MSHR_MERGE:        381
cpu0->cpu0_ITLB RFO          ACCESS:          0 HIT:          0 MISS:          0 MSHR_MERGE:          0
cpu0->cpu0_ITLB PREFETCH     ACCESS:          0 HIT:          0 MISS:          0 MSHR_MERGE:          0
cpu0->cpu0_ITLB WRITE        ACCESS:          0 HIT:          0 MISS:          0 MSHR_MERGE:          0
cpu0->cpu0_ITLB TRANSLATION  ACCESS:          0 HIT:          0 MISS:          0 MSHR_MERGE:          0
cpu0->cpu0_ITLB PREFETCH REQUESTED:          0 ISSUED:          0 USEFUL:          0 USELESS:          0
cpu0->cpu0_ITLB AVERAGE MISS LATENCY: 30.94 cycles
cpu0->cpu0_DTLB TOTAL        ACCESS:    1256670 HIT:    1249593 MISS:       7077 MSHR_MERGE:       2954
cpu0->cpu0_DTLB LOAD         ACCESS:    1256670 HIT:    1249593 MISS:       7077 MSHR_MERGE:       2954
cpu0->cpu0_DTLB RFO          ACCESS:          0 HIT:          0 MISS:          0 MSHR_MERGE:          0
cpu0->cpu0_DTLB PREFETCH     ACCESS:          0 HIT:          0 MISS:          0 MSHR_MERGE:          0
cpu0->cpu0_DTLB WRITE        ACCESS:          0 HIT:          0 MISS:          0 MSHR_MERGE:          0
cpu0->cpu0_DTLB TRANSLATION  ACCESS:          0 HIT:          0 MISS:          0 MSHR_MERGE:          0
cpu0->cpu0_DTLB PREFETCH REQUESTED:          0 ISSUED:          0 USEFUL:          0 USELESS:          0
cpu0->cpu0_DTLB AVERAGE MISS LATENCY: 54.03 cycles
cpu0->LLC TOTAL        ACCESS:      53377 HIT:      37154 MISS:      16223 MSHR_MERGE:          0
cpu0->LLC LOAD         ACCESS:      39953 HIT:      25457 MISS:      14496 MSHR_MERGE:          0
cpu0->LLC RFO          ACCESS:       4519 HIT:       3286 MISS:       1233 MSHR_MERGE:          0
cpu0->LLC PREFETCH     ACCESS:          0 HIT:          0 MISS:          0 MSHR_MERGE:          0
cpu0->LLC WRITE        ACCESS:       8359 HIT:       8284 MISS:         75 MSHR_MERGE:          0
cpu0->LLC TRANSLATION  ACCESS:        546 HIT:        127 MISS:        419 MSHR_MERGE:          0
cpu0->LLC PREFETCH REQUESTED:          0 ISSUED:          0 USEFUL:          0 USELESS:          0
cpu0->LLC AVERAGE MISS LATENCY: 184.4 cycles

DRAM Statistics

Channel 0 RQ ROW_BUFFER_HIT:        617
  ROW_BUFFER_MISS:      15531
  AVG DBUS CONGESTED CYCLE: 9.852
Channel 0 WQ ROW_BUFFER_HIT:        132
  ROW_BUFFER_MISS:        249
  FULL:          0
Channel 0 REFRESHES ISSUED:        345
