[VMEM] WARNING: physical memory size is smaller than virtual memory size.

*** ChampSim Multicore Out-of-Order Simulator ***
Warmup Instructions: 1000000
Simulation Instructions: 5000000
Number of CPUs: 1
Page size: 4096

Off-chip DRAM Size: 16 GiB Channels: 1 Width: 64-bit Data Rate: 3205 MT/s
Warmup finished CPU 0 instructions: 1000003 cycles: 309737 cumulative IPC: 3.229 (Simulation time: 00 hr 00 min 03 sec)
Warmup complete CPU 0 instructions: 1000003 cycles: 309737 cumulative IPC: 3.229 (Simulation time: 00 hr 00 min 03 sec)
Simulation finished CPU 0 instructions: 5000004 cycles: 10833483 cumulative IPC: 0.4615 (Simulation time: 00 hr 01 min 10 sec)
Simulation complete CPU 0 instructions: 5000004 cycles: 10833483 cumulative IPC: 0.4615 (Simulation time: 00 hr 01 min 10 sec)

ChampSim completed all CPUs

=== Simulation ===
CPU 0 runs traces/649.fotonik3d_s-1176B.champsimtrace.xz

Region of Interest Statistics

CPU 0 cumulative IPC: 0.4615 instructions: 5000004 cycles: 10833483
CPU 0 Branch Prediction Accuracy: 99.97% MPKI: 0.0044 Average ROB Occupancy at Mispredict: 352
Branch type MPKI
BRANCH_DIRECT_JUMP: 0
BRANCH_INDIRECT: 0
BRANCH_CONDITIONAL: 0.0044
BRANCH_DIRECT_CALL: 0
BRANCH_INDIRECT_CALL: 0
BRANCH_RETURN: 0

cpu0->cpu0_STLB TOTAL        ACCESS:       1151 HIT:        459 MISS:        692 MSHR_MERGE:          0
cpu0->cpu0_STLB LOAD         ACCESS:       1151 HIT:        459 MISS:        692 MSHR_MERGE:          0
cpu0->cpu0_STLB RFO          ACCESS:          0 HIT:          0 MISS:          0 MSHR_MERGE:          0
cpu0->cpu0_STLB PREFETCH     ACCESS:          0 HIT:          0 MISS:          0 MSHR_MERGE:          0
cpu0->cpu0_STLB WRITE        ACCESS:          0 HIT:          0 MISS:          0 MSHR_MERGE:          0
cpu0->cpu0_STLB TRANSLATION  ACCESS:          0 HIT:          0 MISS:          0 MSHR_MERGE:          0
cpu0->cpu0_STLB PREFETCH REQUESTED:          0 ISSUED:          0 USEFUL:          0 USELESS:          0
cpu0->cpu0_STLB AVERAGE MISS LATENCY: 670.7 cycles
cpu0->cpu0_L2C TOTAL        ACCESS:     110903 HIT:      24033 MISS:      86870 MSHR_MERGE:          0
cpu0->cpu0_L2C LOAD         ACCESS:      66092 HIT:      10434 MISS:      55658 MSHR_MERGE:          0
cpu0->cpu0_L2C RFO          ACCESS:         77 HIT:         71 MISS:          6 MSHR_MERGE:          0
cpu0->cpu0_L2C PREFETCH     ACCESS:          0 HIT:          0 MISS:          0 MSHR_MERGE:          0
cpu0->cpu0_L2C WRITE        ACCESS:      43926 HIT:      13527 MISS:      30399 MSHR_MERGE:          0
cpu0->cpu0_L2C TRANSLATION  ACCESS:        808 HIT:          1 MISS:        807 MSHR_MERGE:          0
cpu0->cpu0_L2C PREFETCH REQUESTED:          0 ISSUED:          0 USEFUL:          0 USELESS:          0
cpu0->cpu0_L2C AVERAGE MISS LATENCY: 103.6 cycles
cpu0->cpu0_L1I TOTAL        ACCESS:     887528 HIT:     887528 MISS:          0 MSHR_MERGE:          0
cpu0->cpu0_L1I LOAD         ACCESS:     887528 HIT:     887528 MISS:          0 MSHR_MERGE:          0
cpu0->cpu0_L1I RFO          ACCESS:          0 HIT:          0 MISS:          0 MSHR_MERGE:          0
cpu0->cpu0_L1I PREFETCH     ACCESS:          0 HIT:          0 MISS:          0 MSHR_MERGE:          0
cpu0->cpu0_L1I WRITE        ACCESS:          0 HIT:          0 MISS:          0 MSHR_MERGE:          0
cpu0->cpu0_L1I TRANSLATION  ACCESS:          0 HIT:          0 MISS:          0 MSHR_MERGE:          0
cpu0->cpu0_L1I PREFETCH REQUESTED:          0 ISSUED:          0 USEFUL:          0 USELESS:          0
cpu0->cpu0_L1I AVERAGE MISS LATENCY: - cycles
cpu0->cpu0_L1D TOTAL        ACCESS:    1546469 HIT:    1286909 MISS:     259560 MSHR_MERGE:     192583
cpu0->cpu0_L1D LOAD         ACCESS:    1194052 HIT:     935548 MISS:     258504 MSHR_MERGE:     192412
cpu0->cpu0_L1D RFO          ACCESS:          0 HIT:          0 MISS:          0 MSHR_MERGE:          0
cpu0->cpu0_L1D PREFETCH     ACCESS:          0 HIT:          0 MISS:          0 MSHR_MERGE:          0
cpu0->cpu0_L1D WRITE        ACCESS:     351027 HIT:     350779 MISS:        248 MSHR_MERGE:        171
cpu0->cpu0_L1D TRANSLATION  ACCESS:       1390 HIT:        582 MISS:        808 MSHR_MERGE:          0
cpu0->cpu0_L1D PREFETCH REQUESTED:          0 ISSUED:          0 USEFUL:          0 USELESS:          0
cpu0->cpu0_L1D AVERAGE MISS LATENCY: 141.5 cycles
cpu0->cpu0_ITLB TOTAL        ACCESS:     713062 HIT:     713062 MISS:          0 MSHR_MERGE:          0
cpu0->cpu0_ITLB LOAD         ACCESS:     713062 HIT:     713062 MISS:          0 MSHR_MERGE:          0
cpu0->cpu0_ITLB RFO          ACCESS:          0 HIT:          0 MISS:          0 MSHR_MERGE:          0
cpu0->cpu0_ITLB PREFETCH     ACCESS:          0 HIT:          0 MISS:          0 MSHR_MERGE:          0
cpu0->cpu0_ITLB WRITE        ACCESS:          0 HIT:          0 MISS:          0 MSHR_MERGE:          0
cpu0->cpu0_ITLB TRANSLATION  ACCESS:          0 HIT:          0 MISS:          0 MSHR_MERGE:          0
cpu0->cpu0_ITLB PREFETCH REQUESTED:          0 ISSUED:          0 USEFUL:          0 USELESS:          0
cpu0->cpu0_ITLB AVERAGE MISS LATENCY: - cycles
cpu0->cpu0_DTLB TOTAL        ACCESS:    1420345 HIT:    1416392 MISS:       3953 MSHR_MERGE:       2802
cpu0->cpu0_DTLB LOAD         ACCESS:    1420345 HIT:    1416392 MISS:       3953 MSHR_MERGE:       2802
cpu0->cpu0_DTLB RFO          ACCESS:          0 HIT:          0 MISS:          0 MSHR_MERGE:          0
cpu0->cpu0_DTLB PREFETCH     ACCESS:          0 HIT:          0 MISS:          0 MSHR_MERGE:          0
cpu0->cpu0_DTLB WRITE        ACCESS:          0 HIT:          0 MISS:          0 MSHR_MERGE:          0
cpu0->cpu0_DTLB TRANSLATION  ACCESS:          0 HIT:          0 MISS:          0 MSHR_MERGE:          0
cpu0->cpu0_DTLB PREFETCH REQUESTED:          0 ISSUED:          0 USEFUL:          0 USELESS:          0
cpu0->cpu0_DTLB AVERAGE MISS LATENCY: 408.8 cycles
cpu0->LLC TOTAL        ACCESS:      99481 HIT:      52876 MISS:      46605 MSHR_MERGE:          0
cpu0->LLC LOAD         ACCESS:      55658 HIT:      11702 MISS:      43956 MSHR_MERGE:          0
cpu0->LLC RFO          ACCESS:          6 HIT:          6 MISS:          0 MSHR_MERGE:          0
cpu0->LLC PREFETCH     ACCESS:          0 HIT:          0 MISS:          0 MSHR_MERGE:          0
cpu0->LLC WRITE        ACCESS:      43010 HIT:      41150 MISS:       1860 MSHR_MERGE:          0
cpu0->LLC TRANSLATION  ACCESS:        807 HIT:         18 MISS:        789 MSHR_MERGE:          0
cpu0->LLC PREFETCH REQUESTED:          0 ISSUED:          0 USEFUL:          0 USELESS:          0
cpu0->LLC AVERAGE MISS LATENCY: 171.8 cycles

DRAM Statistics

Channel 0 RQ ROW_BUFFER_HIT:       7100
  ROW_BUFFER_MISS:      37645
  AVG DBUS CONGESTED CYCLE: 13.18
Channel 0 WQ ROW_BUFFER_HIT:       8146
  ROW_BUFFER_MISS:      13117
  FULL:          0
Channel 0 REFRESHES ISSUED:        903
