[VMEM] WARNING: physical memory size is smaller than virtual memory size.

*** ChampSim Multicore Out-of-Order Simulator ***
Warmup Instructions: 1000000
Simulation Instructions: 5000000
Number of CPUs: 1
Page size: 4096

Off-chip DRAM Size: 16 GiB Channels: 1 Width: 64-bit Data Rate: 3205 MT/s
Warmup finished CPU 0 instructions: 1000002 cycles: 263789 cumulative IPC: 3.791 (Simulation time: 00 hr 00 min 02 sec)
Warmup complete CPU 0 instructions: 1000002 cycles: 263789 cumulative IPC: 3.791 (Simulation time: 00 hr 00 min 02 sec)
Simulation finished CPU 0 instructions: 5000002 cycles: 4641144 cumulative IPC: 1.077 (Simulation time: 00 hr 00 min 36 sec)
Simulation complete CPU 0 instructions: 5000002 cycles: 4641144 cumulative IPC: 1.077 (Simulation time: 00 hr 00 min 36 sec)

ChampSim completed all CPUs

=== Simulation ===
CPU 0 runs traces/654.roms_s-293B.champsimtrace.xz

Region of Interest Statistics

CPU 0 cumulative IPC: 1.077 instructions: 5000002 cycles: 4641144
CPU 0 Branch Prediction Accuracy: 99.77% MPKI: 0.0354 Average ROB Occupancy at Mispredict: 294.4
Branch type MPKI
BRANCH_DIRECT_JUMP: 0.0002
BRANCH_INDIRECT: 0
BRANCH_CONDITIONAL: 0.0352
BRANCH_DIRECT_CALL: 0
BRANCH_INDIRECT_CALL: 0
BRANCH_RETURN: 0

cpu0->cpu0_STLB TOTAL        ACCESS:       1266 HIT:        368 MISS:        898 MSHR_MERGE:          0
cpu0->cpu0_STLB LOAD         ACCESS:       1266 HIT:        368 MISS:        898 MSHR_MERGE:          0
cpu0->cpu0_STLB RFO          ACCESS:          0 HIT:          0 MISS:          0 MSHR_MERGE:          0
cpu0->cpu0_STLB PREFETCH     ACCESS:          0 HIT:          0 MISS:          0 MSHR_MERGE:          0
cpu0->cpu0_STLB WRITE        ACCESS:          0 HIT:          0 MISS:          0 MSHR_MERGE:          0
cpu0->cpu0_STLB TRANSLATION  ACCESS:          0 HIT:          0 MISS:          0 MSHR_MERGE:          0
cpu0->cpu0_STLB PREFETCH REQUESTED:          0 ISSUED:          0 USEFUL:          0 USELESS:          0
cpu0->cpu0_STLB AVERAGE MISS LATENCY: 917.6 cycles
cpu0->cpu0_L2C TOTAL        ACCESS:      96123 HIT:      19884 MISS:      76239 MSHR_MERGE:          0
cpu0->cpu0_L2C LOAD         ACCESS:      43879 HIT:      10230 MISS:      33649 MSHR_MERGE:          0
cpu0->cpu0_L2C RFO          ACCESS:      25181 HIT:        222 MISS:      24959 MSHR_MERGE:          0
cpu0->cpu0_L2C PREFETCH     ACCESS:          0 HIT:          0 MISS:          0 MSHR_MERGE:          0
cpu0->cpu0_L2C WRITE        ACCESS:      25265 HIT:       9376 MISS:      15889 MSHR_MERGE:          0
cpu0->cpu0_L2C TRANSLATION  ACCESS:       1798 HIT:         56 MISS:       1742 MSHR_MERGE:          0
cpu0->cpu0_L2C PREFETCH REQUESTED:          0 ISSUED:          0 USEFUL:          0 USELESS:          0
cpu0->cpu0_L2C AVERAGE MISS LATENCY: 135.8 cycles
cpu0->cpu0_L1I TOTAL        ACCESS:    1009666 HIT:    1009602 MISS:         64 MSHR_MERGE:         22
cpu0->cpu0_L1I LOAD         ACCESS:    1009666 HIT:    1009602 MISS:         64 MSHR_MERGE:         22
cpu0->cpu0_L1I RFO          ACCESS:          0 HIT:          0 MISS:          0 MSHR_MERGE:          0
cpu0->cpu0_L1I PREFETCH     ACCESS:          0 HIT:          0 MISS:          0 MSHR_MERGE:          0
cpu0->cpu0_L1I WRITE        ACCESS:          0 HIT:          0 MISS:          0 MSHR_MERGE:          0
cpu0->cpu0_L1I TRANSLATION  ACCESS:          0 HIT:          0 MISS:          0 MSHR_MERGE:          0
cpu0->cpu0_L1I PREFETCH REQUESTED:          0 ISSUED:          0 USEFUL:          0 USELESS:          0
cpu0->cpu0_L1I AVERAGE MISS LATENCY: 303.5 cycles
cpu0->cpu0_L1D TOTAL        ACCESS:    1593757 HIT:    1416619 MISS:     177138 MSHR_MERGE:     106316
cpu0->cpu0_L1D LOAD         ACCESS:    1140129 HIT:    1065015 MISS:      75114 MSHR_MERGE:      31276
cpu0->cpu0_L1D RFO          ACCESS:          0 HIT:          0 MISS:          0 MSHR_MERGE:          0
cpu0->cpu0_L1D PREFETCH     ACCESS:          0 HIT:          0 MISS:          0 MSHR_MERGE:          0
cpu0->cpu0_L1D WRITE        ACCESS:     451515 HIT:     351297 MISS:     100218 MSHR_MERGE:      75032
cpu0->cpu0_L1D TRANSLATION  ACCESS:       2113 HIT:        307 MISS:       1806 MSHR_MERGE:          8
cpu0->cpu0_L1D PREFETCH REQUESTED:          0 ISSUED:          0 USEFUL:          0 USELESS:          0
cpu0->cpu0_L1D AVERAGE MISS LATENCY: 154 cycles
cpu0->cpu0_ITLB TOTAL        ACCESS:     766355 HIT:     766354 MISS:          1 MSHR_MERGE:          0
cpu0->cpu0_ITLB LOAD         ACCESS:     766355 HIT:     766354 MISS:          1 MSHR_MERGE:          0
cpu0->cpu0_ITLB RFO          ACCESS:          0 HIT:          0 MISS:          0 MSHR_MERGE:          0
cpu0->cpu0_ITLB PREFETCH     ACCESS:          0 HIT:          0 MISS:          0 MSHR_MERGE:          0
cpu0->cpu0_ITLB WRITE        ACCESS:          0 HIT:          0 MISS:          0 MSHR_MERGE:          0
cpu0->cpu0_ITLB TRANSLATION  ACCESS:          0 HIT:          0 MISS:          0 MSHR_MERGE:          0
cpu0->cpu0_ITLB PREFETCH REQUESTED:          0 ISSUED:          0 USEFUL:          0 USELESS:          0
cpu0->cpu0_ITLB AVERAGE MISS LATENCY: 637 cycles
cpu0->cpu0_DTLB TOTAL        ACCESS:    1512813 HIT:    1507025 MISS:       5788 MSHR_MERGE:       4523
cpu0->cpu0_DTLB LOAD         ACCESS:    1512813 HIT:    1507025 MISS:       5788 MSHR_MERGE:       4523
cpu0->cpu0_DTLB RFO          ACCESS:          0 HIT:          0 MISS:          0 MSHR_MERGE:          0
cpu0->cpu0_DTLB PREFETCH     ACCESS:          0 HIT:          0 MISS:          0 MSHR_MERGE:          0
cpu0->cpu0_DTLB WRITE        ACCESS:          0 HIT:          0 MISS:          0 MSHR_MERGE:          0
cpu0->cpu0_DTLB TRANSLATION  ACCESS:          0 HIT:          0 MISS:          0 MSHR_MERGE:          0
cpu0->cpu0_DTLB PREFETCH REQUESTED:          0 ISSUED:          0 USEFUL:          0 USELESS:          0
cpu0->cpu0_DTLB AVERAGE MISS LATENCY: 656.6 cycles
cpu0->LLC TOTAL        ACCESS:      84369 HIT:      39519 MISS:      44850 MSHR_MERGE:          0
cpu0->LLC LOAD         ACCESS:      33648 HIT:      15520 MISS:      18128 MSHR_MERGE:          0
cpu0->LLC RFO          ACCESS:      24959 HIT:       1701 MISS:      23258 MSHR_MERGE:          0
cpu0->LLC PREFETCH     ACCESS:          0 HIT:          0 MISS:          0 MSHR_MERGE:          0
cpu0->LLC WRITE        ACCESS:      24020 HIT:      22210 MISS:       1810 MSHR_MERGE:          0
cpu0->LLC TRANSLATION  ACCESS:       1742 HIT:         88 MISS:       1654 MSHR_MERGE:          0
cpu0->LLC PREFETCH REQUESTED:          0 ISSUED:          0 USEFUL:          0 USELESS:          0
cpu0->LLC AVERAGE MISS LATENCY: 208.7 cycles

DRAM Statistics

Channel 0 RQ ROW_BUFFER_HIT:        295
  ROW_BUFFER_MISS:      42691
  AVG DBUS CONGESTED CYCLE: 9.08
Channel 0 WQ ROW_BUFFER_HIT:       2462
  ROW_BUFFER_MISS:       5531
  FULL:          0
Channel 0 REFRESHES ISSUED:        387
