[VMEM] WARNING: physical memory size is smaller than virtual memory size.

*** ChampSim Multicore Out-of-Order Simulator ***
Warmup Instructions: 1000000
Simulation Instructions: 5000000
Number of CPUs: 1
Page size: 4096

Off-chip DRAM Size: 16 GiB Channels: 1 Width: 64-bit Data Rate: 3205 MT/s
Warmup finished CPU 0 instructions: 1000004 cycles: 296878 cumulative IPC: 3.368 (Simulation time: 00 hr 00 min 03 sec)
Warmup complete CPU 0 instructions: 1000004 cycles: 296878 cumulative IPC: 3.368 (Simulation time: 00 hr 00 min 03 sec)
Simulation finished CPU 0 instructions: 5000002 cycles: 2452985 cumulative IPC: 2.038 (Simulation time: 00 hr 00 min 20 sec)
Simulation complete CPU 0 instructions: 5000002 cycles: 2452985 cumulative IPC: 2.038 (Simulation time: 00 hr 00 min 20 sec)

ChampSim completed all CPUs

=== Simulation ===
CPU 0 runs traces/600.perlbench_s-1273B.champsimtrace.xz

Region of Interest Statistics

CPU 0 cumulative IPC: 2.038 instructions: 5000002 cycles: 2452985
CPU 0 Branch Prediction Accuracy: 97.76% MPKI: 3.315 Average ROB Occupancy at Mispredict: 114.2
Branch type MPKI
BRANCH_DIRECT_JUMP: 0.035
BRANCH_INDIRECT: 0.0064
BRANCH_CONDITIONAL: 3.265
BRANCH_DIRECT_CALL: 0.0026
BRANCH_INDIRECT_CALL: 0.003
BRANCH_RETURN: 0.0028

cpu0->cpu0_STLB TOTAL        ACCESS:       1611 HIT:       1515 MISS:         96 MSHR_MERGE:          0
cpu0->cpu0_STLB LOAD         ACCESS:       1611 HIT:       1515 MISS:         96 MSHR_MERGE:          0
cpu0->cpu0_STLB RFO          ACCESS:          0 HIT:          0 MISS:          0 MSHR_MERGE:          0
cpu0->cpu0_STLB PREFETCH     ACCESS:          0 HIT:          0 MISS:          0 MSHR_MERGE:          0
cpu0->cpu0_STLB WRITE        ACCESS:          0 HIT:          0 MISS:          0 MSHR_MERGE:          0
cpu0->cpu0_STLB TRANSLATION  ACCESS:          0 HIT:          0 MISS:          0 MSHR_MERGE:          0
cpu0->cpu0_STLB PREFETCH REQUESTED:          0 ISSUED:          0 USEFUL:          0 USELESS:          0
cpu0->cpu0_STLB AVERAGE MISS LATENCY: 777.2 cycles
cpu0->cpu0_L2C TOTAL        ACCESS:        995 HIT:        226 MISS:        769 MSHR_MERGE:          0
cpu0->cpu0_L2C LOAD         ACCESS:        776 HIT:        204 MISS:        572 MSHR_MERGE:          0
cpu0->cpu0_L2C RFO          ACCESS:         22 HIT:          1 MISS:         21 MSHR_MERGE:          0
cpu0->cpu0_L2C PREFETCH     ACCESS:          0 HIT:          0 MISS:          0 MSHR_MERGE:          0
cpu0->cpu0_L2C WRITE        ACCESS:         20 HIT:         20 MISS:          0 MSHR_MERGE:          0
cpu0->cpu0_L2C TRANSLATION  ACCESS:        177 HIT:          1 MISS:        176 MSHR_MERGE:          0
cpu0->cpu0_L2C PREFETCH REQUESTED:          0 ISSUED:          0 USEFUL:          0 USELESS:          0
cpu0->cpu0_L2C AVERAGE MISS LATENCY: 189.2 cycles
cpu0->cpu0_L1I TOTAL        ACCESS:     231881 HIT:     231526 MISS:        355 MSHR_MERGE:         75
cpu0->cpu0_L1I LOAD         ACCESS:     231881 HIT:     231526 MISS:        355 MSHR_MERGE:         75
cpu0->cpu0_L1I RFO          ACCESS:          0 HIT:          0 MISS:          0 MSHR_MERGE:          0
cpu0->cpu0_L1I PREFETCH     ACCESS:          0 HIT:          0 MISS:          0 MSHR_MERGE:          0
cpu0->cpu0_L1I WRITE        ACCESS:          0 HIT:          0 MISS:          0 MSHR_MERGE:          0
cpu0->cpu0_L1I TRANSLATION  ACCESS:          0 HIT:          0 MISS:          0 MSHR_MERGE:          0
cpu0->cpu0_L1I PREFETCH REQUESTED:          0 ISSUED:          0 USEFUL:          0 USELESS:          0
cpu0->cpu0_L1I AVERAGE MISS LATENCY: 69.56 cycles
cpu0->cpu0_L1D TOTAL        ACCESS:    1546130 HIT:    1545180 MISS:        950 MSHR_MERGE:        255
cpu0->cpu0_L1D LOAD         ACCESS:     648169 HIT:     647466 MISS:        703 MSHR_MERGE:        207
cpu0->cpu0_L1D RFO          ACCESS:          0 HIT:          0 MISS:          0 MSHR_MERGE:          0
cpu0->cpu0_L1D PREFETCH     ACCESS:          0 HIT:          0 MISS:          0 MSHR_MERGE:          0
cpu0->cpu0_L1D WRITE        ACCESS:     897763 HIT:     897693 MISS:         70 MSHR_MERGE:         48
cpu0->cpu0_L1D TRANSLATION  ACCESS:        198 HIT:         21 MISS:        177 MSHR_MERGE:          0
cpu0->cpu0_L1D PREFETCH REQUESTED:          0 ISSUED:          0 USEFUL:          0 USELESS:          0
cpu0->cpu0_L1D AVERAGE MISS LATENCY: 193.3 cycles
cpu0->cpu0_ITLB TOTAL        ACCESS:     209597 HIT:     209529 MISS:         68 MSHR_MERGE:         43
cpu0->cpu0_ITLB LOAD         ACCESS:     209597 HIT:     209529 MISS:         68 MSHR_MERGE:         43
cpu0->cpu0_ITLB RFO          ACCESS:          0 HIT:          0 MISS:          0 MSHR_MERGE:          0
cpu0->cpu0_ITLB PREFETCH     ACCESS:          0 HIT:          0 MISS:          0 MSHR_MERGE:          0
cpu0->cpu0_ITLB WRITE        ACCESS:          0 HIT:          0 MISS:          0 MSHR_MERGE:          0
cpu0->cpu0_ITLB TRANSLATION  ACCESS:          0 HIT:          0 MISS:          0 MSHR_MERGE:          0
cpu0->cpu0_ITLB PREFETCH REQUESTED:          0 ISSUED:          0 USEFUL:          0 USELESS:          0
cpu0->cpu0_ITLB AVERAGE MISS LATENCY: 233 cycles
cpu0->cpu0_DTLB TOTAL        ACCESS:    1389065 HIT:    1387234 MISS:       1831 MSHR_MERGE:        245
cpu0->cpu0_DTLB LOAD         ACCESS:    1389065 HIT:    1387234 MISS:       1831 MSHR_MERGE:        245
cpu0->cpu0_DTLB RFO          ACCESS:          0 HIT:          0 MISS:          0 MSHR_MERGE:          0
cpu0->cpu0_DTLB PREFETCH     ACCESS:          0 HIT:          0 MISS:          0 MSHR_MERGE:          0
cpu0->cpu0_DTLB WRITE        ACCESS:          0 HIT:          0 MISS:          0 MSHR_MERGE:          0
cpu0->cpu0_DTLB TRANSLATION  ACCESS:          0 HIT:          0 MISS:          0 MSHR_MERGE:          0
cpu0->cpu0_DTLB PREFETCH REQUESTED:          0 ISSUED:          0 USEFUL:          0 USELESS:          0
cpu0->cpu0_DTLB AVERAGE MISS LATENCY: 48.51 cycles
cpu0->LLC TOTAL        ACCESS:        769 HIT:          0 MISS:        769 MSHR_MERGE:          0
cpu0->LLC LOAD         ACCESS:        572 HIT:          0 MISS:        572 MSHR_MERGE:          0
cpu0->LLC RFO          ACCESS:         21 HIT:          0 MISS:         21 MSHR_MERGE:          0
cpu0->LLC PREFETCH     ACCESS:          0 HIT:          0 MISS:          0 MSHR_MERGE:          0
cpu0->LLC WRITE        ACCESS:          0 HIT:          0 MISS:          0 MSHR_MERGE:          0
cpu0->LLC TRANSLATION  ACCESS:        176 HIT:          0 MISS:        176 MSHR_MERGE:          0
cpu0->LLC PREFETCH REQUESTED:          0 ISSUED:          0 USEFUL:          0 USELESS:          0
cpu0->LLC AVERAGE MISS LATENCY: 173.2 cycles

DRAM Statistics

Channel 0 RQ ROW_BUFFER_HIT:          4
  ROW_BUFFER_MISS:        765
  AVG DBUS CONGESTED CYCLE: 2.803
Channel 0 WQ ROW_BUFFER_HIT:          0
  ROW_BUFFER_MISS:          0
  FULL:          0
Channel 0 REFRESHES ISSUED:        205
