[VMEM] WARNING: physical memory size is smaller than virtual memory size.

*** ChampSim Multicore Out-of-Order Simulator ***
Warmup Instructions: 1000000
Simulation Instructions: 5000000
Number of CPUs: 1
Page size: 4096

Off-chip DRAM Size: 16 GiB Channels: 1 Width: 64-bit Data Rate: 3205 MT/s
Warmup finished CPU 0 instructions: 1000000 cycles: 287763 cumulative IPC: 3.475 (Simulation time: 00 hr 00 min 03 sec)
Warmup complete CPU 0 instructions: 1000000 cycles: 287763 cumulative IPC: 3.475 (Simulation time: 00 hr 00 min 03 sec)
Simulation finished CPU 0 instructions: 5000001 cycles: 5731548 cumulative IPC: 0.8724 (Simulation time: 00 hr 00 min 37 sec)
Simulation complete CPU 0 instructions: 5000001 cycles: 5731548 cumulative IPC: 0.8724 (Simulation time: 00 hr 00 min 37 sec)

ChampSim completed all CPUs

=== Simulation ===
CPU 0 runs traces/603.bwaves_s-2931B.champsimtrace.xz

Region of Interest Statistics

CPU 0 cumulative IPC: 0.8724 instructions: 5000001 cycles: 5731548
CPU 0 Branch Prediction Accuracy: 80.62% MPKI: 1.635 Average ROB Occupancy at Mispredict: 296.9
Branch type MPKI
BRANCH_DIRECT_JUMP: 0
BRANCH_INDIRECT: 0
BRANCH_CONDITIONAL: 1.635
BRANCH_DIRECT_CALL: 0
BRANCH_INDIRECT_CALL: 0
BRANCH_RETURN: 0

cpu0->cpu0_STLB TOTAL        ACCESS:       8311 HIT:       7239 MISS:       1072 MSHR_MERGE:          0
cpu0->cpu0_STLB LOAD         ACCESS:       8311 HIT:       7239 MISS:       1072 MSHR_MERGE:          0
cpu0->cpu0_STLB RFO          ACCESS:          0 HIT:          0 MISS:          0 MSHR_MERGE:          0
cpu0->cpu0_STLB PREFETCH     ACCESS:          0 HIT:          0 MISS:          0 MSHR_MERGE:          0
cpu0->cpu0_STLB WRITE        ACCESS:          0 HIT:          0 MISS:          0 MSHR_MERGE:          0
cpu0->cpu0_STLB TRANSLATION  ACCESS:          0 HIT:          0 MISS:          0 MSHR_MERGE:          0
cpu0->cpu0_STLB PREFETCH REQUESTED:          0 ISSUED:          0 USEFUL:          0 USELESS:          0
cpu0->cpu0_STLB AVERAGE MISS LATENCY: 693.1 cycles
cpu0->cpu0_L2C TOTAL        ACCESS:     117356 HIT:      42492 MISS:      74864 MSHR_MERGE:          0
cpu0->cpu0_L2C LOAD         ACCESS:      51801 HIT:       7943 MISS:      43858 MSHR_MERGE:          0
cpu0->cpu0_L2C RFO          ACCESS:      31515 HIT:       1744 MISS:      29771 MSHR_MERGE:          0
cpu0->cpu0_L2C PREFETCH     ACCESS:          0 HIT:          0 MISS:          0 MSHR_MERGE:          0
cpu0->cpu0_L2C WRITE        ACCESS:      31905 HIT:      31905 MISS:          0 MSHR_MERGE:          0
cpu0->cpu0_L2C TRANSLATION  ACCESS:       2135 HIT:        900 MISS:       1235 MSHR_MERGE:          0
cpu0->cpu0_L2C PREFETCH REQUESTED:          0 ISSUED:          0 USEFUL:          0 USELESS:          0
cpu0->cpu0_L2C AVERAGE MISS LATENCY: 223.1 cycles
cpu0->cpu0_L1I TOTAL        ACCESS:     567168 HIT:     567168 MISS:          0 MSHR_MERGE:          0
cpu0->cpu0_L1I LOAD         ACCESS:     567168 HIT:     567168 MISS:          0 MSHR_MERGE:          0
cpu0->cpu0_L1I RFO          ACCESS:          0 HIT:          0 MISS:          0 MSHR_MERGE:          0
cpu0->cpu0_L1I PREFETCH     ACCESS:          0 HIT:          0 MISS:          0 MSHR_MERGE:          0
cpu0->cpu0_L1I WRITE        ACCESS:          0 HIT:          0 MISS:          0 MSHR_MERGE:          0
cpu0->cpu0_L1I TRANSLATION  ACCESS:          0 HIT:          0 MISS:          0 MSHR_MERGE:          0
cpu0->cpu0_L1I PREFETCH REQUESTED:          0 ISSUED:          0 USEFUL:          0 USELESS:          0
cpu0->cpu0_L1I AVERAGE MISS LATENCY: - cycles
cpu0->cpu0_L1D TOTAL        ACCESS:    1704912 HIT:    1544713 MISS:     160199 MSHR_MERGE:      74716
cpu0->cpu0_L1D LOAD         ACCESS:     788119 HIT:     735673 MISS:      52446 MSHR_MERGE:        644
cpu0->cpu0_L1D RFO          ACCESS:          0 HIT:          0 MISS:          0 MSHR_MERGE:          0
cpu0->cpu0_L1D PREFETCH     ACCESS:          0 HIT:          0 MISS:          0 MSHR_MERGE:          0
cpu0->cpu0_L1D WRITE        ACCESS:     914646 HIT:     809029 MISS:     105617 MSHR_MERGE:      74071
cpu0->cpu0_L1D TRANSLATION  ACCESS:       2147 HIT:         11 MISS:       2136 MSHR_MERGE:          1
cpu0->cpu0_L1D PREFETCH REQUESTED:          0 ISSUED:          0 USEFUL:          0 USELESS:          0
cpu0->cpu0_L1D AVERAGE MISS LATENCY: 204.3 cycles
cpu0->cpu0_ITLB TOTAL        ACCESS:     453586 HIT:     453586 MISS:          0 MSHR_MERGE:          0
cpu0->cpu0_ITLB LOAD         ACCESS:     453586 HIT:     453586 MISS:          0 MSHR_MERGE:          0
cpu0->cpu0_ITLB RFO          ACCESS:          0 HIT:          0 MISS:          0 MSHR_MERGE:          0
cpu0->cpu0_ITLB PREFETCH     ACCESS:          0 HIT:          0 MISS:          0 MSHR_MERGE:          0
cpu0->cpu0_ITLB WRITE        ACCESS:          0 HIT:          0 MISS:          0 MSHR_MERGE:          0
cpu0->cpu0_ITLB TRANSLATION  ACCESS:          0 HIT:          0 MISS:          0 MSHR_MERGE:          0
cpu0->cpu0_ITLB PREFETCH REQUESTED:          0 ISSUED:          0 USEFUL:          0 USELESS:          0
cpu0->cpu0_ITLB AVERAGE MISS LATENCY: - cycles
cpu0->cpu0_DTLB TOTAL        ACCESS:    1575443 HIT:    1566078 MISS:       9365 MSHR_MERGE:       1054
cpu0->cpu0_DTLB LOAD         ACCESS:    1575443 HIT:    1566078 MISS:       9365 MSHR_MERGE:       1054
cpu0->cpu0_DTLB RFO          ACCESS:          0 HIT:          0 MISS:          0 MSHR_MERGE:          0
cpu0->cpu0_DTLB PREFETCH     ACCESS:          0 HIT:          0 MISS:          0 MSHR_MERGE:          0
cpu0->cpu0_DTLB WRITE        ACCESS:          0 HIT:          0 MISS:          0 MSHR_MERGE:          0
cpu0->cpu0_DTLB TRANSLATION  ACCESS:          0 HIT:          0 MISS:          0 MSHR_MERGE:          0
cpu0->cpu0_DTLB PREFETCH REQUESTED:          0 ISSUED:          0 USEFUL:          0 USELESS:          0
cpu0->cpu0_DTLB AVERAGE MISS LATENCY: 94.54 cycles
cpu0->LLC TOTAL        ACCESS:     104852 HIT:      35565 MISS:      69287 MSHR_MERGE:          0
cpu0->LLC LOAD         ACCESS:      43858 HIT:       5578 MISS:      38280 MSHR_MERGE:          0
cpu0->LLC RFO          ACCESS:      29771 HIT:          0 MISS:      29771 MSHR_MERGE:          0
cpu0->LLC PREFETCH     ACCESS:          0 HIT:          0 MISS:          0 MSHR_MERGE:          0
cpu0->LLC WRITE        ACCESS:      29988 HIT:      29987 MISS:          1 MSHR_MERGE:          0
cpu0->LLC TRANSLATION  ACCESS:       1235 HIT:          0 MISS:       1235 MSHR_MERGE:          0
cpu0->LLC PREFETCH REQUESTED:          0 ISSUED:          0 USEFUL:          0 USELESS:          0
cpu0->LLC AVERAGE MISS LATENCY: 223.8 cycles

DRAM Statistics

Channel 0 RQ ROW_BUFFER_HIT:          0
  ROW_BUFFER_MISS:      69286
  AVG DBUS CONGESTED CYCLE: 11.56
Channel 0 WQ ROW_BUFFER_HIT:       8122
  ROW_BUFFER_MISS:      13898
  FULL:          0
Channel 0 REFRESHES ISSUED:        478
