[VMEM] WARNING: physical memory size is smaller than virtual memory size.

*** ChampSim Multicore Out-of-Order Simulator ***
Warmup Instructions: 1000000
Simulation Instructions: 5000000
Number of CPUs: 1
Page size: 4096

Off-chip DRAM Size: 16 GiB Channels: 1 Width: 64-bit Data Rate: 3205 MT/s
Warmup finished CPU 0 instructions: 1000001 cycles: 313399 cumulative IPC: 3.191 (Simulation time: 00 hr 00 min 03 sec)
Warmup complete CPU 0 instructions: 1000001 cycles: 313399 cumulative IPC: 3.191 (Simulation time: 00 hr 00 min 03 sec)
Simulation finished CPU 0 instructions: 5000004 cycles: 2943374 cumulative IPC: 1.699 (Simulation time: 00 hr 00 min 28 sec)
Simulation complete CPU 0 instructions: 5000004 cycles: 2943374 cumulative IPC: 1.699 (Simulation time: 00 hr 00 min 28 sec)

ChampSim completed all CPUs

=== Simulation ===
CPU 0 runs traces/607.cactuBSSN_s-2421B.champsimtrace.xz

Region of Interest Statistics

CPU 0 cumulative IPC: 1.699 instructions: 5000004 cycles: 2943374
CPU 0 Branch Prediction Accuracy: 91.82% MPKI: 0.7284 Average ROB Occupancy at Mispredict: 317.9
Branch type MPKI
BRANCH_DIRECT_JUMP: 0
BRANCH_INDIRECT: 0
BRANCH_CONDITIONAL: 0.3648
BRANCH_DIRECT_CALL: 0
BRANCH_INDIRECT_CALL: 0
BRANCH_RETURN: 0.3636

cpu0->cpu0_STLB TOTAL        ACCESS:     191676 HIT:     191458 MISS:        218 MSHR_MERGE:          0
cpu0->cpu0_STLB LOAD         ACCESS:     191676 HIT:     191458 MISS:        218 MSHR_MERGE:          0
cpu0->cpu0_STLB RFO          ACCESS:          0 HIT:          0 MISS:          0 MSHR_MERGE:          0
cpu0->cpu0_STLB PREFETCH     ACCESS:          0 HIT:          0 MISS:          0 MSHR_MERGE:          0
cpu0->cpu0_STLB WRITE        ACCESS:          0 HIT:          0 MISS:          0 MSHR_MERGE:          0
cpu0->cpu0_STLB TRANSLATION  ACCESS:          0 HIT:          0 MISS:          0 MSHR_MERGE:          0
cpu0->cpu0_STLB PREFETCH REQUESTED:          0 ISSUED:          0 USEFUL:          0 USELESS:          0
cpu0->cpu0_STLB AVERAGE MISS LATENCY: 845.7 cycles
cpu0->cpu0_L2C TOTAL        ACCESS:     532211 HIT:     501103 MISS:      31108 MSHR_MERGE:          0
cpu0->cpu0_L2C LOAD         ACCESS:     467286 HIT:     440212 MISS:      27074 MSHR_MERGE:          0
cpu0->cpu0_L2C RFO          ACCESS:      30607 HIT:      27092 MISS:       3515 MSHR_MERGE:          0
cpu0->cpu0_L2C PREFETCH     ACCESS:          0 HIT:          0 MISS:          0 MSHR_MERGE:          0
cpu0->cpu0_L2C WRITE        ACCESS:      33774 HIT:      33773 MISS:          1 MSHR_MERGE:          0
cpu0->cpu0_L2C TRANSLATION  ACCESS:        544 HIT:         26 MISS:        518 MSHR_MERGE:          0
cpu0->cpu0_L2C PREFETCH REQUESTED:          0 ISSUED:          0 USEFUL:          0 USELESS:          0
cpu0->cpu0_L2C AVERAGE MISS LATENCY: 108 cycles
cpu0->cpu0_L1I TOTAL        ACCESS:    1094519 HIT:     840908 MISS:     253611 MSHR_MERGE:     123615
cpu0->cpu0_L1I LOAD         ACCESS:    1094519 HIT:     840908 MISS:     253611 MSHR_MERGE:     123615
cpu0->cpu0_L1I RFO          ACCESS:          0 HIT:          0 MISS:          0 MSHR_MERGE:          0
cpu0->cpu0_L1I PREFETCH     ACCESS:          0 HIT:          0 MISS:          0 MSHR_MERGE:          0
cpu0->cpu0_L1I WRITE        ACCESS:          0 HIT:          0 MISS:          0 MSHR_MERGE:          0
cpu0->cpu0_L1I TRANSLATION  ACCESS:          0 HIT:          0 MISS:          0 MSHR_MERGE:          0
cpu0->cpu0_L1I PREFETCH REQUESTED:          0 ISSUED:          0 USEFUL:          0 USELESS:          0
cpu0->cpu0_L1I AVERAGE MISS LATENCY: 7.093 cycles
cpu0->cpu0_L1D TOTAL        ACCESS:    1907871 HIT:    1515288 MISS:     392583 MSHR_MERGE:      24129
cpu0->cpu0_L1D LOAD         ACCESS:    1506983 HIT:    1149114 MISS:     357869 MSHR_MERGE:      20567
cpu0->cpu0_L1D RFO          ACCESS:          0 HIT:          0 MISS:          0 MSHR_MERGE:          0
cpu0->cpu0_L1D PREFETCH     ACCESS:          0 HIT:          0 MISS:          0 MSHR_MERGE:          0
cpu0->cpu0_L1D WRITE        ACCESS:     400342 HIT:     366172 MISS:      34170 MSHR_MERGE:       3562
cpu0->cpu0_L1D TRANSLATION  ACCESS:        546 HIT:          2 MISS:        544 MSHR_MERGE:          0
cpu0->cpu0_L1D PREFETCH REQUESTED:          0 ISSUED:          0 USEFUL:          0 USELESS:          0
cpu0->cpu0_L1D AVERAGE MISS LATENCY: 18.48 cycles
cpu0->cpu0_ITLB TOTAL        ACCESS:     872107 HIT:     872107 MISS:          0 MSHR_MERGE:          0
cpu0->cpu0_ITLB LOAD         ACCESS:     872107 HIT:     872107 MISS:          0 MSHR_MERGE:          0
cpu0->cpu0_ITLB RFO          ACCESS:          0 HIT:          0 MISS:          0 MSHR_MERGE:          0
cpu0->cpu0_ITLB PREFETCH     ACCESS:          0 HIT:          0 MISS:          0 MSHR_MERGE:          0
cpu0->cpu0_ITLB WRITE        ACCESS:          0 HIT:          0 MISS:          0 MSHR_MERGE:          0
cpu0->cpu0_ITLB TRANSLATION  ACCESS:          0 HIT:          0 MISS:          0 MSHR_MERGE:          0
cpu0->cpu0_ITLB PREFETCH REQUESTED:          0 ISSUED:          0 USEFUL:          0 USELESS:          0
cpu0->cpu0_ITLB AVERAGE MISS LATENCY: - cycles
cpu0->cpu0_DTLB TOTAL        ACCESS:    1803616 HIT:    1590160 MISS:     213456 MSHR_MERGE:      21780
cpu0->cpu0_DTLB LOAD         ACCESS:    1803616 HIT:    1590160 MISS:     213456 MSHR_MERGE:      21780
cpu0->cpu0_DTLB RFO          ACCESS:          0 HIT:          0 MISS:          0 MSHR_MERGE:          0
cpu0->cpu0_DTLB PREFETCH     ACCESS:          0 HIT:          0 MISS:          0 MSHR_MERGE:          0
cpu0->cpu0_DTLB WRITE        ACCESS:          0 HIT:          0 MISS:          0 MSHR_MERGE:          0
cpu0->cpu0_DTLB TRANSLATION  ACCESS:          0 HIT:          0 MISS:          0 MSHR_MERGE:          0
cpu0->cpu0_DTLB PREFETCH REQUESTED:          0 ISSUED:          0 USEFUL:          0 USELESS:          0
cpu0->cpu0_DTLB AVERAGE MISS LATENCY: 6.006 cycles
cpu0->LLC TOTAL        ACCESS:      34153 HIT:      20739 MISS:      13414 MSHR_MERGE:          0
cpu0->LLC LOAD         ACCESS:      27074 HIT:      16951 MISS:      10123 MSHR_MERGE:          0
cpu0->LLC RFO          ACCESS:       3500 HIT:        575 MISS:       2925 MSHR_MERGE:          0
cpu0->LLC PREFETCH     ACCESS:          0 HIT:          0 MISS:          0 MSHR_MERGE:          0
cpu0->LLC WRITE        ACCESS:       3061 HIT:       3061 MISS:          0 MSHR_MERGE:          0
cpu0->LLC TRANSLATION  ACCESS:        518 HIT:        152 MISS:        366 MSHR_MERGE:          0
cpu0->LLC PREFETCH REQUESTED:          0 ISSUED:          0 USEFUL:          0 USELESS:          0
cpu0->LLC AVERAGE MISS LATENCY: 214.7 cycles

DRAM Statistics

Channel 0 RQ ROW_BUFFER_HIT:          0
  ROW_BUFFER_MISS:      13414
  AVG DBUS CONGESTED CYCLE: 3.739
Channel 0 WQ ROW_BUFFER_HIT:         11
  ROW_BUFFER_MISS:         45
  FULL:          0
Channel 0 REFRESHES ISSUED:        245
