[VMEM] WARNING: physical memory size is smaller than virtual memory size.

*** ChampSim Multicore Out-of-Order Simulator ***
Warmup Instructions: 1000000
Simulation Instructions: 5000000
Number of CPUs: 1
Page size: 4096

Off-chip DRAM Size: 16 GiB Channels: 1 Width: 64-bit Data Rate: 3205 MT/s
Warmup finished CPU 0 instructions: 1000001 cycles: 335428 cumulative IPC: 2.981 (Simulation time: 00 hr 00 min 03 sec)
Warmup complete CPU 0 instructions: 1000001 cycles: 335428 cumulative IPC: 2.981 (Simulation time: 00 hr 00 min 03 sec)
Simulation finished CPU 0 instructions: 5000002 cycles: 11095130 cumulative IPC: 0.4506 (Simulation time: 00 hr 01 min 24 sec)
Simulation complete CPU 0 instructions: 5000002 cycles: 11095130 cumulative IPC: 0.4506 (Simulation time: 00 hr 01 min 24 sec)

ChampSim completed all CPUs

=== Simulation ===
CPU 0 runs traces/619.lbm_s-2676B.champsimtrace.xz

Region of Interest Statistics

CPU 0 cumulative IPC: 0.4506 instructions: 5000002 cycles: 11095130
CPU 0 Branch Prediction Accuracy: 95.45% MPKI: 0.7996 Average ROB Occupancy at Mispredict: 213.8
Branch type MPKI
BRANCH_DIRECT_JUMP: 0
BRANCH_INDIRECT: 0
BRANCH_CONDITIONAL: 0.7996
BRANCH_DIRECT_CALL: 0
BRANCH_INDIRECT_CALL: 0
BRANCH_RETURN: 0

cpu0->cpu0_STLB TOTAL        ACCESS:       6665 HIT:       3049 MISS:       3616 MSHR_MERGE:          0
cpu0->cpu0_STLB LOAD         ACCESS:       6665 HIT:       3049 MISS:       3616 MSHR_MERGE:          0
cpu0->cpu0_STLB RFO          ACCESS:          0 HIT:          0 MISS:          0 MSHR_MERGE:          0
cpu0->cpu0_STLB PREFETCH     ACCESS:          0 HIT:          0 MISS:          0 MSHR_MERGE:          0
cpu0->cpu0_STLB WRITE        ACCESS:          0 HIT:          0 MISS:          0 MSHR_MERGE:          0
cpu0->cpu0_STLB TRANSLATION  ACCESS:          0 HIT:          0 MISS:          0 MSHR_MERGE:          0
cpu0->cpu0_STLB PREFETCH REQUESTED:          0 ISSUED:          0 USEFUL:          0 USELESS:          0
cpu0->cpu0_STLB AVERAGE MISS LATENCY: 1140 cycles
cpu0->cpu0_L2C TOTAL        ACCESS:     714437 HIT:     472644 MISS:     241793 MSHR_MERGE:          0
cpu0->cpu0_L2C LOAD         ACCESS:      57859 HIT:          0 MISS:      57859 MSHR_MERGE:          0
cpu0->cpu0_L2C RFO          ACCESS:     326254 HIT:     146395 MISS:     179859 MSHR_MERGE:          0
cpu0->cpu0_L2C PREFETCH     ACCESS:          0 HIT:          0 MISS:          0 MSHR_MERGE:          0
cpu0->cpu0_L2C WRITE        ACCESS:     326248 HIT:     326248 MISS:          0 MSHR_MERGE:          0
cpu0->cpu0_L2C TRANSLATION  ACCESS:       4076 HIT:          1 MISS:       4075 MSHR_MERGE:          0
cpu0->cpu0_L2C PREFETCH REQUESTED:          0 ISSUED:          0 USEFUL:          0 USELESS:          0
cpu0->cpu0_L2C AVERAGE MISS LATENCY: 487.3 cycles
cpu0->cpu0_L1I TOTAL        ACCESS:     785258 HIT:     785258 MISS:          0 MSHR_MERGE:          0
cpu0->cpu0_L1I LOAD         ACCESS:     785258 HIT:     785258 MISS:          0 MSHR_MERGE:          0
cpu0->cpu0_L1I RFO          ACCESS:          0 HIT:          0 MISS:          0 MSHR_MERGE:          0
cpu0->cpu0_L1I PREFETCH     ACCESS:          0 HIT:          0 MISS:          0 MSHR_MERGE:          0
cpu0->cpu0_L1I WRITE        ACCESS:          0 HIT:          0 MISS:          0 MSHR_MERGE:          0
cpu0->cpu0_L1I TRANSLATION  ACCESS:          0 HIT:          0 MISS:          0 MSHR_MERGE:          0
cpu0->cpu0_L1I PREFETCH REQUESTED:          0 ISSUED:          0 USEFUL:          0 USELESS:          0
cpu0->cpu0_L1I AVERAGE MISS LATENCY: - cycles
cpu0->cpu0_L1D TOTAL        ACCESS:    1231682 HIT:     754369 MISS:     477313 MSHR_MERGE:      89113
cpu0->cpu0_L1D LOAD         ACCESS:     316048 HIT:     185619 MISS:     130429 MSHR_MERGE:      72570
cpu0->cpu0_L1D RFO          ACCESS:          0 HIT:          0 MISS:          0 MSHR_MERGE:          0
cpu0->cpu0_L1D PREFETCH     ACCESS:          0 HIT:          0 MISS:          0 MSHR_MERGE:          0
cpu0->cpu0_L1D WRITE        ACCESS:     908394 HIT:     565586 MISS:     342808 MSHR_MERGE:      16543
cpu0->cpu0_L1D TRANSLATION  ACCESS:       7240 HIT:       3164 MISS:       4076 MSHR_MERGE:          0
cpu0->cpu0_L1D PREFETCH REQUESTED:          0 ISSUED:          0 USEFUL:          0 USELESS:          0
cpu0->cpu0_L1D AVERAGE MISS LATENCY: 313.1 cycles
cpu0->cpu0_ITLB TOTAL        ACCESS:     582088 HIT:     582088 MISS:          0 MSHR_MERGE:          0
cpu0->cpu0_ITLB LOAD         ACCESS:     582088 HIT:     582088 MISS:          0 MSHR_MERGE:          0
cpu0->cpu0_ITLB RFO          ACCESS:          0 HIT:          0 MISS:          0 MSHR_MERGE:          0
cpu0->cpu0_ITLB PREFETCH     ACCESS:          0 HIT:          0 MISS:          0 MSHR_MERGE:          0
cpu0->cpu0_ITLB WRITE        ACCESS:          0 HIT:          0 MISS:          0 MSHR_MERGE:          0
cpu0->cpu0_ITLB TRANSLATION  ACCESS:          0 HIT:          0 MISS:          0 MSHR_MERGE:          0
cpu0->cpu0_ITLB PREFETCH REQUESTED:          0 ISSUED:          0 USEFUL:          0 USELESS:          0
cpu0->cpu0_ITLB AVERAGE MISS LATENCY: - cycles
cpu0->cpu0_DTLB TOTAL        ACCESS:    1155114 HIT:    1130686 MISS:      24428 MSHR_MERGE:      17763
cpu0->cpu0_DTLB LOAD         ACCESS:    1155114 HIT:    1130686 MISS:      24428 MSHR_MERGE:      17763
cpu0->cpu0_DTLB RFO          ACCESS:          0 HIT:          0 MISS:          0 MSHR_MERGE:          0
cpu0->cpu0_DTLB PREFETCH     ACCESS:          0 HIT:          0 MISS:          0 MSHR_MERGE:          0
cpu0->cpu0_DTLB WRITE        ACCESS:          0 HIT:          0 MISS:          0 MSHR_MERGE:          0
cpu0->cpu0_DTLB TRANSLATION  ACCESS:          0 HIT:          0 MISS:          0 MSHR_MERGE:          0
cpu0->cpu0_DTLB PREFETCH REQUESTED:          0 ISSUED:          0 USEFUL:          0 USELESS:          0
cpu0->cpu0_DTLB AVERAGE MISS LATENCY: 623.8 cycles
cpu0->LLC TOTAL        ACCESS:     421661 HIT:     186169 MISS:     235492 MSHR_MERGE:          0
cpu0->LLC LOAD         ACCESS:      57859 HIT:          1 MISS:      57858 MSHR_MERGE:          0
cpu0->LLC RFO          ACCESS:     179857 HIT:       6301 MISS:     173556 MSHR_MERGE:          0
cpu0->LLC PREFETCH     ACCESS:          0 HIT:          0 MISS:          0 MSHR_MERGE:          0
cpu0->LLC WRITE        ACCESS:     179870 HIT:     179866 MISS:          4 MSHR_MERGE:          0
cpu0->LLC TRANSLATION  ACCESS:       4075 HIT:          1 MISS:       4074 MSHR_MERGE:          0
cpu0->LLC PREFETCH REQUESTED:          0 ISSUED:          0 USEFUL:          0 USELESS:          0
cpu0->LLC AVERAGE MISS LATENCY: 483.8 cycles

DRAM Statistics

Channel 0 RQ ROW_BUFFER_HIT:      12519
  ROW_BUFFER_MISS:     222958
  AVG DBUS CONGESTED CYCLE: 7.231
Channel 0 WQ ROW_BUFFER_HIT:      27489
  ROW_BUFFER_MISS:     145551
  FULL:          0
Channel 0 REFRESHES ISSUED:        925
