[VMEM] WARNING: physical memory size is smaller than virtual memory size.

*** ChampSim Multicore Out-of-Order Simulator ***
Warmup Instructions: 1000000
Simulation Instructions: 5000000
Number of CPUs: 1
Page size: 4096

Off-chip DRAM Size: 16 GiB Channels: 1 Width: 64-bit Data Rate: 3205 MT/s
Warmup finished CPU 0 instructions: 1000002 cycles: 782923 cumulative IPC: 1.277 (Simulation time: 00 hr 00 min 07 sec)
Warmup complete CPU 0 instructions: 1000002 cycles: 782923 cumulative IPC: 1.277 (Simulation time: 00 hr 00 min 07 sec)
Simulation finished CPU 0 instructions: 5000004 cycles: 21519229 cumulative IPC: 0.2324 (Simulation time: 00 hr 01 min 43 sec)
Simulation complete CPU 0 instructions: 5000004 cycles: 21519229 cumulative IPC: 0.2324 (Simulation time: 00 hr 01 min 43 sec)

ChampSim completed all CPUs

=== Simulation ===
CPU 0 runs traces/620.omnetpp_s-141B.champsimtrace.xz

Region of Interest Statistics

CPU 0 cumulative IPC: 0.2324 instructions: 5000004 cycles: 21519229
CPU 0 Branch Prediction Accuracy: 93.13% MPKI: 14.39 Average ROB Occupancy at Mispredict: 43.26
Branch type MPKI
BRANCH_DIRECT_JUMP: 0.8132
BRANCH_INDIRECT: 0.3712
BRANCH_CONDITIONAL: 11.89
BRANCH_DIRECT_CALL: 0.0072
BRANCH_INDIRECT_CALL: 0.8716
BRANCH_RETURN: 0.4386

cpu0->cpu0_STLB TOTAL        ACCESS:     111762 HIT:      86476 MISS:      25286 MSHR_MERGE:          0
cpu0->cpu0_STLB LOAD         ACCESS:     111762 HIT:      86476 MISS:      25286 MSHR_MERGE:          0
cpu0->cpu0_STLB RFO          ACCESS:          0 HIT:          0 MISS:          0 MSHR_MERGE:          0
cpu0->cpu0_STLB PREFETCH     ACCESS:          0 HIT:          0 MISS:          0 MSHR_MERGE:          0
cpu0->cpu0_STLB WRITE        ACCESS:          0 HIT:          0 MISS:          0 MSHR_MERGE:          0
cpu0->cpu0_STLB TRANSLATION  ACCESS:          0 HIT:          0 MISS:          0 MSHR_MERGE:          0
cpu0->cpu0_STLB PREFETCH REQUESTED:          0 ISSUED:          0 USEFUL:          0 USELESS:          0
cpu0->cpu0_STLB AVERAGE MISS LATENCY: 487.6 cycles
cpu0->cpu0_L2C TOTAL        ACCESS:     206623 HIT:      90547 MISS:     116076 MSHR_MERGE:          0
cpu0->cpu0_L2C LOAD         ACCESS:      89508 HIT:      25909 MISS:      63599 MSHR_MERGE:          0
cpu0->cpu0_L2C RFO          ACCESS:      12206 HIT:       2415 MISS:       9791 MSHR_MERGE:          0
cpu0->cpu0_L2C PREFETCH     ACCESS:          0 HIT:          0 MISS:          0 MSHR_MERGE:          0
cpu0->cpu0_L2C WRITE        ACCESS:      48520 HIT:      48400 MISS:        120 MSHR_MERGE:          0
cpu0->cpu0_L2C TRANSLATION  ACCESS:      56389 HIT:      13823 MISS:      42566 MSHR_MERGE:          0
cpu0->cpu0_L2C PREFETCH REQUESTED:          0 ISSUED:          0 USEFUL:          0 USELESS:          0
cpu0->cpu0_L2C AVERAGE MISS LATENCY: 153.7 cycles
cpu0->cpu0_L1I TOTAL        ACCESS:     676239 HIT:     671501 MISS:       4738 MSHR_MERGE:       1212
cpu0->cpu0_L1I LOAD         ACCESS:     676239 HIT:     671501 MISS:       4738 MSHR_MERGE:       1212
cpu0->cpu0_L1I RFO          ACCESS:          0 HIT:          0 MISS:          0 MSHR_MERGE:          0
cpu0->cpu0_L1I PREFETCH     ACCESS:          0 HIT:          0 MISS:          0 MSHR_MERGE:          0
cpu0->cpu0_L1I WRITE        ACCESS:          0 HIT:          0 MISS:          0 MSHR_MERGE:          0
cpu0->cpu0_L1I TRANSLATION  ACCESS:          0 HIT:          0 MISS:          0 MSHR_MERGE:          0
cpu0->cpu0_L1I PREFETCH REQUESTED:          0 ISSUED:          0 USEFUL:          0 USELESS:          0
cpu0->cpu0_L1I AVERAGE MISS LATENCY: 18.42 cycles
cpu0->cpu0_L1D TOTAL        ACCESS:    2038998 HIT:    1834090 MISS:     204908 MSHR_MERGE:      50331
cpu0->cpu0_L1D LOAD         ACCESS:    1066790 HIT:     956808 MISS:     109982 MSHR_MERGE:      24000
cpu0->cpu0_L1D RFO          ACCESS:          0 HIT:          0 MISS:          0 MSHR_MERGE:          0
cpu0->cpu0_L1D PREFETCH     ACCESS:          0 HIT:          0 MISS:          0 MSHR_MERGE:          0
cpu0->cpu0_L1D WRITE        ACCESS:     911155 HIT:     872765 MISS:      38390 MSHR_MERGE:      26184
cpu0->cpu0_L1D TRANSLATION  ACCESS:      61053 HIT:       4517 MISS:      56536 MSHR_MERGE:        147
cpu0->cpu0_L1D PREFETCH REQUESTED:          0 ISSUED:          0 USEFUL:          0 USELESS:          0
cpu0->cpu0_L1D AVERAGE MISS LATENCY: 123.9 cycles
cpu0->cpu0_ITLB TOTAL        ACCESS:     596626 HIT:     581478 MISS:      15148 MSHR_MERGE:       7338
cpu0->cpu0_ITLB LOAD         ACCESS:     596626 HIT:     581478 MISS:      15148 MSHR_MERGE:       7338
cpu0->cpu0_ITLB RFO          ACCESS:          0 HIT:          0 MISS:          0 MSHR_MERGE:          0
cpu0->cpu0_ITLB PREFETCH     ACCESS:          0 HIT:          0 MISS:          0 MSHR_MERGE:          0
cpu0->cpu0_ITLB WRITE        ACCESS:          0 HIT:          0 MISS:          0 MSHR_MERGE:          0
cpu0->cpu0_ITLB TRANSLATION  ACCESS:          0 HIT:          0 MISS:          0 MSHR_MERGE:          0
cpu0->cpu0_ITLB PREFETCH REQUESTED:          0 ISSUED:          0 USEFUL:          0 USELESS:          0
cpu0->cpu0_ITLB AVERAGE MISS LATENCY: 9.076 cycles
cpu0->cpu0_DTLB TOTAL        ACCESS:    1882029 HIT:    1760416 MISS:     121613 MSHR_MERGE:      17661
cpu0->cpu0_DTLB LOAD         ACCESS:    1882029 HIT:    1760416 MISS:     121613 MSHR_MERGE:      17661
cpu0->cpu0_DTLB RFO          ACCESS:          0 HIT:          0 MISS:          0 MSHR_MERGE:          0
cpu0->cpu0_DTLB PREFETCH     ACCESS:          0 HIT:          0 MISS:          0 MSHR_MERGE:          0
cpu0->cpu0_DTLB WRITE        ACCESS:          0 HIT:          0 MISS:          0 MSHR_MERGE:          0
cpu0->cpu0_DTLB TRANSLATION  ACCESS:          0 HIT:          0 MISS:          0 MSHR_MERGE:          0
cpu0->cpu0_DTLB PREFETCH REQUESTED:          0 ISSUED:          0 USEFUL:          0 USELESS:          0
cpu0->cpu0_DTLB AVERAGE MISS LATENCY: 123.6 cycles
cpu0->LLC TOTAL        ACCESS:     153054 HIT:      67056 MISS:      85998 MSHR_MERGE:          0
cpu0->LLC LOAD         ACCESS:      63599 HIT:      14307 MISS:      49292 MSHR_MERGE:          0
cpu0->LLC RFO          ACCESS:       9791 HIT:       3362 MISS:       6429 MSHR_MERGE:          0
cpu0->LLC PREFETCH     ACCESS:          0 HIT:          0 MISS:          0 MSHR_MERGE:          0
cpu0->LLC WRITE        ACCESS:      37098 HIT:      36949 MISS:        149 MSHR_MERGE:          0
cpu0->LLC TRANSLATION  ACCESS:      42566 HIT:      12438 MISS:      30128 MSHR_MERGE:          0
cpu0->LLC PREFETCH REQUESTED:          0 ISSUED:          0 USEFUL:          0 USELESS:          0
cpu0->LLC AVERAGE MISS LATENCY: 186.3 cycles

DRAM Statistics

Channel 0 RQ ROW_BUFFER_HIT:        293
  ROW_BUFFER_MISS:      85555
  AVG DBUS CONGESTED CYCLE: 20.05
Channel 0 WQ ROW_BUFFER_HIT:       6824
  ROW_BUFFER_MISS:      15907
  FULL:          0
Channel 0 REFRESHES ISSUED:       1793
