[VMEM] WARNING: physical memory size is smaller than virtual memory size.

*** ChampSim Multicore Out-of-Order Simulator ***
Warmup Instructions: 1000000
Simulation Instructions: 5000000
Number of CPUs: 1
Page size: 4096

Off-chip DRAM Size: 16 GiB Channels: 1 Width: 64-bit Data Rate: 3205 MT/s
Warmup finished CPU 0 instructions: 1000003 cycles: 256854 cumulative IPC: 3.893 (Simulation time: 00 hr 00 min 02 sec)
Warmup complete CPU 0 instructions: 1000003 cycles: 256854 cumulative IPC: 3.893 (Simulation time: 00 hr 00 min 02 sec)
Simulation finished CPU 0 instructions: 5000002 cycles: 2366807 cumulative IPC: 2.113 (Simulation time: 00 hr 00 min 18 sec)
Simulation complete CPU 0 instructions: 5000002 cycles: 2366807 cumulative IPC: 2.113 (Simulation time: 00 hr 00 min 18 sec)

ChampSim completed all CPUs

=== Simulation ===
CPU 0 runs traces/625.x264_s-12B.champsimtrace.xz

Region of Interest Statistics

CPU 0 cumulative IPC: 2.113 instructions: 5000002 cycles: 2366807
CPU 0 Branch Prediction Accuracy: 88.09% MPKI: 2.206 Average ROB Occupancy at Mispredict: 159.5
Branch type MPKI
BRANCH_DIRECT_JUMP: 0.0002
BRANCH_INDIRECT: 0
BRANCH_CONDITIONAL: 2.203
BRANCH_DIRECT_CALL: 0
BRANCH_INDIRECT_CALL: 0.0018
BRANCH_RETURN: 0.0008

cpu0->cpu0_STLB TOTAL        ACCESS:         95 HIT:          1 MISS:         94 MSHR_MERGE:          0
cpu0->cpu0_STLB LOAD         ACCESS:         95 HIT:          1 MISS:         94 MSHR_MERGE:          0
cpu0->cpu0_STLB RFO          ACCESS:          0 HIT:          0 MISS:          0 MSHR_MERGE:          0
cpu0->cpu0_STLB PREFETCH     ACCESS:          0 HIT:          0 MISS:          0 MSHR_MERGE:          0
cpu0->cpu0_STLB WRITE        ACCESS:          0 HIT:          0 MISS:          0 MSHR_MERGE:          0
cpu0->cpu0_STLB TRANSLATION  ACCESS:          0 HIT:          0 MISS:          0 MSHR_MERGE:          0
cpu0->cpu0_STLB PREFETCH REQUESTED:          0 ISSUED:          0 USEFUL:          0 USELESS:          0
cpu0->cpu0_STLB AVERAGE MISS LATENCY: 646.2 cycles
cpu0->cpu0_L2C TOTAL        ACCESS:       5095 HIT:          1 MISS:       5094 MSHR_MERGE:          0
cpu0->cpu0_L2C LOAD         ACCESS:       4977 HIT:          0 MISS:       4977 MSHR_MERGE:          0
cpu0->cpu0_L2C RFO          ACCESS:          4 HIT:          0 MISS:          4 MSHR_MERGE:          0
cpu0->cpu0_L2C PREFETCH     ACCESS:          0 HIT:          0 MISS:          0 MSHR_MERGE:          0
cpu0->cpu0_L2C WRITE        ACCESS:          0 HIT:          0 MISS:          0 MSHR_MERGE:          0
cpu0->cpu0_L2C TRANSLATION  ACCESS:        114 HIT:          1 MISS:        113 MSHR_MERGE:          0
cpu0->cpu0_L2C PREFETCH REQUESTED:          0 ISSUED:          0 USEFUL:          0 USELESS:          0
cpu0->cpu0_L2C AVERAGE MISS LATENCY: 178.3 cycles
cpu0->cpu0_L1I TOTAL        ACCESS:     385073 HIT:     385049 MISS:         24 MSHR_MERGE:          9
cpu0->cpu0_L1I LOAD         ACCESS:     385073 HIT:     385049 MISS:         24 MSHR_MERGE:          9
cpu0->cpu0_L1I RFO          ACCESS:          0 HIT:          0 MISS:          0 MSHR_MERGE:          0
cpu0->cpu0_L1I PREFETCH     ACCESS:          0 HIT:          0 MISS:          0 MSHR_MERGE:          0
cpu0->cpu0_L1I WRITE        ACCESS:          0 HIT:          0 MISS:          0 MSHR_MERGE:          0
cpu0->cpu0_L1I TRANSLATION  ACCESS:          0 HIT:          0 MISS:          0 MSHR_MERGE:          0
cpu0->cpu0_L1I PREFETCH REQUESTED:          0 ISSUED:          0 USEFUL:          0 USELESS:          0
cpu0->cpu0_L1I AVERAGE MISS LATENCY: 345.7 cycles
cpu0->cpu0_L1D TOTAL        ACCESS:     999961 HIT:     979467 MISS:      20494 MSHR_MERGE:      15414
cpu0->cpu0_L1D LOAD         ACCESS:     666393 HIT:     646027 MISS:      20366 MSHR_MERGE:      15404
cpu0->cpu0_L1D RFO          ACCESS:          0 HIT:          0 MISS:          0 MSHR_MERGE:          0
cpu0->cpu0_L1D PREFETCH     ACCESS:          0 HIT:          0 MISS:          0 MSHR_MERGE:          0
cpu0->cpu0_L1D WRITE        ACCESS:     333378 HIT:     333364 MISS:         14 MSHR_MERGE:         10
cpu0->cpu0_L1D TRANSLATION  ACCESS:        190 HIT:         76 MISS:        114 MSHR_MERGE:          0
cpu0->cpu0_L1D PREFETCH REQUESTED:          0 ISSUED:          0 USEFUL:          0 USELESS:          0
cpu0->cpu0_L1D AVERAGE MISS LATENCY: 186.8 cycles
cpu0->cpu0_ITLB TOTAL        ACCESS:     345231 HIT:     345229 MISS:          2 MSHR_MERGE:          0
cpu0->cpu0_ITLB LOAD         ACCESS:     345231 HIT:     345229 MISS:          2 MSHR_MERGE:          0
cpu0->cpu0_ITLB RFO          ACCESS:          0 HIT:          0 MISS:          0 MSHR_MERGE:          0
cpu0->cpu0_ITLB PREFETCH     ACCESS:          0 HIT:          0 MISS:          0 MSHR_MERGE:          0
cpu0->cpu0_ITLB WRITE        ACCESS:          0 HIT:          0 MISS:          0 MSHR_MERGE:          0
cpu0->cpu0_ITLB TRANSLATION  ACCESS:          0 HIT:          0 MISS:          0 MSHR_MERGE:          0
cpu0->cpu0_ITLB PREFETCH REQUESTED:          0 ISSUED:          0 USEFUL:          0 USELESS:          0
cpu0->cpu0_ITLB AVERAGE MISS LATENCY: 727 cycles
cpu0->cpu0_DTLB TOTAL        ACCESS:     949379 HIT:     948948 MISS:        431 MSHR_MERGE:        338
cpu0->cpu0_DTLB LOAD         ACCESS:     949379 HIT:     948948 MISS:        431 MSHR_MERGE:        338
cpu0->cpu0_DTLB RFO          ACCESS:          0 HIT:          0 MISS:          0 MSHR_MERGE:          0
cpu0->cpu0_DTLB PREFETCH     ACCESS:          0 HIT:          0 MISS:          0 MSHR_MERGE:          0
cpu0->cpu0_DTLB WRITE        ACCESS:          0 HIT:          0 MISS:          0 MSHR_MERGE:          0
cpu0->cpu0_DTLB TRANSLATION  ACCESS:          0 HIT:          0 MISS:          0 MSHR_MERGE:          0
cpu0->cpu0_DTLB PREFETCH REQUESTED:          0 ISSUED:          0 USEFUL:          0 USELESS:          0
cpu0->cpu0_DTLB AVERAGE MISS LATENCY: 643.6 cycles
cpu0->LLC TOTAL        ACCESS:       5094 HIT:          0 MISS:       5094 MSHR_MERGE:          0
cpu0->LLC LOAD         ACCESS:       4977 HIT:          0 MISS:       4977 MSHR_MERGE:          0
cpu0->LLC RFO          ACCESS:          4 HIT:          0 MISS:          4 MSHR_MERGE:          0
cpu0->LLC PREFETCH     ACCESS:          0 HIT:          0 MISS:          0 MSHR_MERGE:          0
cpu0->LLC WRITE        ACCESS:          0 HIT:          0 MISS:          0 MSHR_MERGE:          0
cpu0->LLC TRANSLATION  ACCESS:        113 HIT:          0 MISS:        113 MSHR_MERGE:          0
cpu0->LLC PREFETCH REQUESTED:          0 ISSUED:          0 USEFUL:          0 USELESS:          0
cpu0->LLC AVERAGE MISS LATENCY: 162.3 cycles

DRAM Statistics

Channel 0 RQ ROW_BUFFER_HIT:        372
  ROW_BUFFER_MISS:       4722
  AVG DBUS CONGESTED CYCLE: 2.609
Channel 0 WQ ROW_BUFFER_HIT:          0
  ROW_BUFFER_MISS:          0
  FULL:          0
Channel 0 REFRESHES ISSUED:        197
