[VMEM] WARNING: physical memory size is smaller than virtual memory size.

*** ChampSim Multicore Out-of-Order Simulator ***
Warmup Instructions: 1000000
Simulation Instructions: 5000000
Number of CPUs: 1
Page size: 4096

Off-chip DRAM Size: 16 GiB Channels: 1 Width: 64-bit Data Rate: 3205 MT/s
Warmup finished CPU 0 instructions: 1000002 cycles: 319537 cumulative IPC: 3.13 (Simulation time: 00 hr 00 min 02 sec)
Warmup complete CPU 0 instructions: 1000002 cycles: 319537 cumulative IPC: 3.13 (Simulation time: 00 hr 00 min 02 sec)
Simulation finished CPU 0 instructions: 5000000 cycles: 6022623 cumulative IPC: 0.8302 (Simulation time: 00 hr 00 min 35 sec)
Simulation complete CPU 0 instructions: 5000000 cycles: 6022623 cumulative IPC: 0.8302 (Simulation time: 00 hr 00 min 35 sec)

ChampSim completed all CPUs

=== Simulation ===
CPU 0 runs traces/627.cam4_s-490B.champsimtrace.xz

Region of Interest Statistics

CPU 0 cumulative IPC: 0.8302 instructions: 5000000 cycles: 6022623
CPU 0 Branch Prediction Accuracy: 88.15% MPKI: 11.81 Average ROB Occupancy at Mispredict: 27.85
Branch type MPKI
BRANCH_DIRECT_JUMP: 0.0106
BRANCH_INDIRECT: 0.0004
BRANCH_CONDITIONAL: 11.76
BRANCH_DIRECT_CALL: 0.0174
BRANCH_INDIRECT_CALL: 0
BRANCH_RETURN: 0.0168

cpu0->cpu0_STLB TOTAL        ACCESS:       1571 HIT:       1133 MISS:        438 MSHR_MERGE:          0
cpu0->cpu0_STLB LOAD         ACCESS:       1571 HIT:       1133 MISS:        438 MSHR_MERGE:          0
cpu0->cpu0_STLB RFO          ACCESS:          0 HIT:          0 MISS:          0 MSHR_MERGE:          0
cpu0->cpu0_STLB PREFETCH     ACCESS:          0 HIT:          0 MISS:          0 MSHR_MERGE:          0
cpu0->cpu0_STLB WRITE        ACCESS:          0 HIT:          0 MISS:          0 MSHR_MERGE:          0
cpu0->cpu0_STLB TRANSLATION  ACCESS:          0 HIT:          0 MISS:          0 MSHR_MERGE:          0
cpu0->cpu0_STLB PREFETCH REQUESTED:          0 ISSUED:          0 USEFUL:          0 USELESS:          0
cpu0->cpu0_STLB AVERAGE MISS LATENCY: 707.4 cycles
cpu0->cpu0_L2C TOTAL        ACCESS:     126661 HIT:      61684 MISS:      64977 MSHR_MERGE:          0
cpu0->cpu0_L2C LOAD         ACCESS:      59748 HIT:      24772 MISS:      34976 MSHR_MERGE:          0
cpu0->cpu0_L2C RFO          ACCESS:      29581 HIT:        213 MISS:      29368 MSHR_MERGE:          0
cpu0->cpu0_L2C PREFETCH     ACCESS:          0 HIT:          0 MISS:          0 MSHR_MERGE:          0
cpu0->cpu0_L2C WRITE        ACCESS:      36756 HIT:      36696 MISS:         60 MSHR_MERGE:          0
cpu0->cpu0_L2C TRANSLATION  ACCESS:        576 HIT:          3 MISS:        573 MSHR_MERGE:          0
cpu0->cpu0_L2C PREFETCH REQUESTED:          0 ISSUED:          0 USEFUL:          0 USELESS:          0
cpu0->cpu0_L2C AVERAGE MISS LATENCY: 117.7 cycles
cpu0->cpu0_L1I TOTAL        ACCESS:     312449 HIT:     311927 MISS:        522 MSHR_MERGE:        201
cpu0->cpu0_L1I LOAD         ACCESS:     312449 HIT:     311927 MISS:        522 MSHR_MERGE:        201
cpu0->cpu0_L1I RFO          ACCESS:          0 HIT:          0 MISS:          0 MSHR_MERGE:          0
cpu0->cpu0_L1I PREFETCH     ACCESS:          0 HIT:          0 MISS:          0 MSHR_MERGE:          0
cpu0->cpu0_L1I WRITE        ACCESS:          0 HIT:          0 MISS:          0 MSHR_MERGE:          0
cpu0->cpu0_L1I TRANSLATION  ACCESS:          0 HIT:          0 MISS:          0 MSHR_MERGE:          0
cpu0->cpu0_L1I PREFETCH REQUESTED:          0 ISSUED:          0 USEFUL:          0 USELESS:          0
cpu0->cpu0_L1I AVERAGE MISS LATENCY: 230 cycles
cpu0->cpu0_L1D TOTAL        ACCESS:     987685 HIT:     712393 MISS:     275292 MSHR_MERGE:     185708
cpu0->cpu0_L1D LOAD         ACCESS:     666662 HIT:     538066 MISS:     128596 MSHR_MERGE:      69169
cpu0->cpu0_L1D RFO          ACCESS:          0 HIT:          0 MISS:          0 MSHR_MERGE:          0
cpu0->cpu0_L1D PREFETCH     ACCESS:          0 HIT:          0 MISS:          0 MSHR_MERGE:          0
cpu0->cpu0_L1D WRITE        ACCESS:     320144 HIT:     174026 MISS:     146118 MSHR_MERGE:     116537
cpu0->cpu0_L1D TRANSLATION  ACCESS:        879 HIT:        301 MISS:        578 MSHR_MERGE:          2
cpu0->cpu0_L1D PREFETCH REQUESTED:          0 ISSUED:          0 USEFUL:          0 USELESS:          0
cpu0->cpu0_L1D AVERAGE MISS LATENCY: 93.32 cycles
cpu0->cpu0_ITLB TOTAL        ACCESS:     288412 HIT:     288395 MISS:         17 MSHR_MERGE:         12
cpu0->cpu0_ITLB LOAD         ACCESS:     288412 HIT:     288395 MISS:         17 MSHR_MERGE:         12
cpu0->cpu0_ITLB RFO          ACCESS:          0 HIT:          0 MISS:          0 MSHR_MERGE:          0
cpu0->cpu0_ITLB PREFETCH     ACCESS:          0 HIT:          0 MISS:          0 MSHR_MERGE:          0
cpu0->cpu0_ITLB WRITE        ACCESS:          0 HIT:          0 MISS:          0 MSHR_MERGE:          0
cpu0->cpu0_ITLB TRANSLATION  ACCESS:          0 HIT:          0 MISS:          0 MSHR_MERGE:          0
cpu0->cpu0_ITLB PREFETCH REQUESTED:          0 ISSUED:          0 USEFUL:          0 USELESS:          0
cpu0->cpu0_ITLB AVERAGE MISS LATENCY: 776.6 cycles
cpu0->cpu0_DTLB TOTAL        ACCESS:     960751 HIT:     955618 MISS:       5133 MSHR_MERGE:       3567
cpu0->cpu0_DTLB LOAD         ACCESS:     960751 HIT:     955618 MISS:       5133 MSHR_MERGE:       3567
cpu0->cpu0_DTLB RFO          ACCESS:          0 HIT:          0 MISS:          0 MSHR_MERGE:          0
cpu0->cpu0_DTLB PREFETCH     ACCESS:          0 HIT:          0 MISS:          0 MSHR_MERGE:          0
cpu0->cpu0_DTLB WRITE        ACCESS:          0 HIT:          0 MISS:          0 MSHR_MERGE:          0
cpu0->cpu0_DTLB TRANSLATION  ACCESS:          0 HIT:          0 MISS:          0 MSHR_MERGE:          0
cpu0->cpu0_DTLB PREFETCH REQUESTED:          0 ISSUED:          0 USEFUL:          0 USELESS:          0
cpu0->cpu0_DTLB AVERAGE MISS LATENCY: 200.7 cycles
cpu0->LLC TOTAL        ACCESS:      96204 HIT:      63559 MISS:      32645 MSHR_MERGE:          0
cpu0->LLC LOAD         ACCESS:      34976 HIT:      18891 MISS:      16085 MSHR_MERGE:          0
cpu0->LLC RFO          ACCESS:      29368 HIT:      13377 MISS:      15991 MSHR_MERGE:          0
cpu0->LLC PREFETCH     ACCESS:          0 HIT:          0 MISS:          0 MSHR_MERGE:          0
cpu0->LLC WRITE        ACCESS:      31287 HIT:      31287 MISS:          0 MSHR_MERGE:          0
cpu0->LLC TRANSLATION  ACCESS:        573 HIT:          4 MISS:        569 MSHR_MERGE:          0
cpu0->LLC PREFETCH REQUESTED:          0 ISSUED:          0 USEFUL:          0 USELESS:          0
cpu0->LLC AVERAGE MISS LATENCY: 203.3 cycles

DRAM Statistics

Channel 0 RQ ROW_BUFFER_HIT:       3776
  ROW_BUFFER_MISS:      28865
  AVG DBUS CONGESTED CYCLE: 10.81
Channel 0 WQ ROW_BUFFER_HIT:       2597
  ROW_BUFFER_MISS:       6563
  FULL:          0
Channel 0 REFRESHES ISSUED:        502
