[VMEM] WARNING: physical memory size is smaller than virtual memory size.

*** ChampSim Multicore Out-of-Order Simulator ***
Warmup Instructions: 1000000
Simulation Instructions: 5000000
Number of CPUs: 1
Page size: 4096

Off-chip DRAM Size: 16 GiB Channels: 1 Width: 64-bit Data Rate: 3205 MT/s
Warmup finished CPU 0 instructions: 1000003 cycles: 369725 cumulative IPC: 2.705 (Simulation time: 00 hr 00 min 03 sec)
Warmup complete CPU 0 instructions: 1000003 cycles: 369725 cumulative IPC: 2.705 (Simulation time: 00 hr 00 min 03 sec)
Simulation finished CPU 0 instructions: 5000001 cycles: 4129336 cumulative IPC: 1.211 (Simulation time: 00 hr 00 min 26 sec)
Simulation complete CPU 0 instructions: 5000001 cycles: 4129336 cumulative IPC: 1.211 (Simulation time: 00 hr 00 min 26 sec)

ChampSim completed all CPUs

=== Simulation ===
CPU 0 runs traces/628.pop2_s-17B.champsimtrace.xz

Region of Interest Statistics

CPU 0 cumulative IPC: 1.211 instructions: 5000001 cycles: 4129336
CPU 0 Branch Prediction Accuracy: 96.39% MPKI: 4.136 Average ROB Occupancy at Mispredict: 86.69
Branch type MPKI
BRANCH_DIRECT_JUMP: 0.0532
BRANCH_INDIRECT: 0.002
BRANCH_CONDITIONAL: 4.06
BRANCH_DIRECT_CALL: 0.0116
BRANCH_INDIRECT_CALL: 0
BRANCH_RETURN: 0.009

cpu0->cpu0_STLB TOTAL        ACCESS:       4372 HIT:       4099 MISS:        273 MSHR_MERGE:          0
cpu0->cpu0_STLB LOAD         ACCESS:       4372 HIT:       4099 MISS:        273 MSHR_MERGE:          0
cpu0->cpu0_STLB RFO          ACCESS:          0 HIT:          0 MISS:          0 MSHR_MERGE:          0
cpu0->cpu0_STLB PREFETCH     ACCESS:          0 HIT:          0 MISS:          0 MSHR_MERGE:          0
cpu0->cpu0_STLB WRITE        ACCESS:          0 HIT:          0 MISS:          0 MSHR_MERGE:          0
cpu0->cpu0_STLB TRANSLATION  ACCESS:          0 HIT:          0 MISS:          0 MSHR_MERGE:          0
cpu0->cpu0_STLB PREFETCH REQUESTED:          0 ISSUED:          0 USEFUL:          0 USELESS:          0
cpu0->cpu0_STLB AVERAGE MISS LATENCY: 767.2 cycles
cpu0->cpu0_L2C TOTAL        ACCESS:     150226 HIT:     104547 MISS:      45679 MSHR_MERGE:          0
cpu0->cpu0_L2C LOAD         ACCESS:      81713 HIT:      47328 MISS:      34385 MSHR_MERGE:          0
cpu0->cpu0_L2C RFO          ACCESS:      27323 HIT:      16574 MISS:      10749 MSHR_MERGE:          0
cpu0->cpu0_L2C PREFETCH     ACCESS:          0 HIT:          0 MISS:          0 MSHR_MERGE:          0
cpu0->cpu0_L2C WRITE        ACCESS:      40616 HIT:      40611 MISS:          5 MSHR_MERGE:          0
cpu0->cpu0_L2C TRANSLATION  ACCESS:        574 HIT:         34 MISS:        540 MSHR_MERGE:          0
cpu0->cpu0_L2C PREFETCH REQUESTED:          0 ISSUED:          0 USEFUL:          0 USELESS:          0
cpu0->cpu0_L2C AVERAGE MISS LATENCY: 81.32 cycles
cpu0->cpu0_L1I TOTAL        ACCESS:     372991 HIT:     362243 MISS:      10748 MSHR_MERGE:       4848
cpu0->cpu0_L1I LOAD         ACCESS:     372991 HIT:     362243 MISS:      10748 MSHR_MERGE:       4848
cpu0->cpu0_L1I RFO          ACCESS:          0 HIT:          0 MISS:          0 MSHR_MERGE:          0
cpu0->cpu0_L1I PREFETCH     ACCESS:          0 HIT:          0 MISS:          0 MSHR_MERGE:          0
cpu0->cpu0_L1I WRITE        ACCESS:          0 HIT:          0 MISS:          0 MSHR_MERGE:          0
cpu0->cpu0_L1I TRANSLATION  ACCESS:          0 HIT:          0 MISS:          0 MSHR_MERGE:          0
cpu0->cpu0_L1I PREFETCH REQUESTED:          0 ISSUED:          0 USEFUL:          0 USELESS:          0
cpu0->cpu0_L1I AVERAGE MISS LATENCY: 33.69 cycles
cpu0->cpu0_L1D TOTAL        ACCESS:    1305356 HIT:    1070773 MISS:     234583 MSHR_MERGE:     130873
cpu0->cpu0_L1D LOAD         ACCESS:     925482 HIT:     782363 MISS:     143119 MSHR_MERGE:      67306
cpu0->cpu0_L1D RFO          ACCESS:          0 HIT:          0 MISS:          0 MSHR_MERGE:          0
cpu0->cpu0_L1D PREFETCH     ACCESS:          0 HIT:          0 MISS:          0 MSHR_MERGE:          0
cpu0->cpu0_L1D WRITE        ACCESS:     379236 HIT:     288359 MISS:      90877 MSHR_MERGE:      63554
cpu0->cpu0_L1D TRANSLATION  ACCESS:        638 HIT:         51 MISS:        587 MSHR_MERGE:         13
cpu0->cpu0_L1D PREFETCH REQUESTED:          0 ISSUED:          0 USEFUL:          0 USELESS:          0
cpu0->cpu0_L1D AVERAGE MISS LATENCY: 42.81 cycles
cpu0->cpu0_ITLB TOTAL        ACCESS:     303413 HIT:     302779 MISS:        634 MSHR_MERGE:        386
cpu0->cpu0_ITLB LOAD         ACCESS:     303413 HIT:     302779 MISS:        634 MSHR_MERGE:        386
cpu0->cpu0_ITLB RFO          ACCESS:          0 HIT:          0 MISS:          0 MSHR_MERGE:          0
cpu0->cpu0_ITLB PREFETCH     ACCESS:          0 HIT:          0 MISS:          0 MSHR_MERGE:          0
cpu0->cpu0_ITLB WRITE        ACCESS:          0 HIT:          0 MISS:          0 MSHR_MERGE:          0
cpu0->cpu0_ITLB TRANSLATION  ACCESS:          0 HIT:          0 MISS:          0 MSHR_MERGE:          0
cpu0->cpu0_ITLB PREFETCH REQUESTED:          0 ISSUED:          0 USEFUL:          0 USELESS:          0
cpu0->cpu0_ITLB AVERAGE MISS LATENCY: 30.38 cycles
cpu0->cpu0_DTLB TOTAL        ACCESS:    1256651 HIT:    1249587 MISS:       7064 MSHR_MERGE:       2940
cpu0->cpu0_DTLB LOAD         ACCESS:    1256651 HIT:    1249587 MISS:       7064 MSHR_MERGE:       2940
cpu0->cpu0_DTLB RFO          ACCESS:          0 HIT:          0 MISS:          0 MSHR_MERGE:          0
cpu0->cpu0_DTLB PREFETCH     ACCESS:          0 HIT:          0 MISS:          0 MSHR_MERGE:          0
cpu0->cpu0_DTLB WRITE        ACCESS:          0 HIT:          0 MISS:          0 MSHR_MERGE:          0
cpu0->cpu0_DTLB TRANSLATION  ACCESS:          0 HIT:          0 MISS:          0 MSHR_MERGE:          0
cpu0->cpu0_DTLB PREFETCH REQUESTED:          0 ISSUED:          0 USEFUL:          0 USELESS:          0
cpu0->cpu0_DTLB AVERAGE MISS LATENCY: 54.33 cycles
cpu0->LLC TOTAL        ACCESS:      62521 HIT:      46369 MISS:      16152 MSHR_MERGE:          0
cpu0->LLC LOAD         ACCESS:      34385 HIT:      19893 MISS:      14492 MSHR_MERGE:          0
cpu0->LLC RFO          ACCESS:      10749 HIT:       9510 MISS:       1239 MSHR_MERGE:          0
cpu0->LLC PREFETCH     ACCESS:          0 HIT:          0 MISS:          0 MSHR_MERGE:          0
cpu0->LLC WRITE        ACCESS:      16847 HIT:      16845 MISS:          2 MSHR_MERGE:          0
cpu0->LLC TRANSLATION  ACCESS:        540 HIT:        121 MISS:        419 MSHR_MERGE:          0
cpu0->LLC PREFETCH REQUESTED:          0 ISSUED:          0 USEFUL:          0 USELESS:          0
cpu0->LLC AVERAGE MISS LATENCY: 186.5 cycles

DRAM Statistics

Channel 0 RQ ROW_BUFFER_HIT:        587
  ROW_BUFFER_MISS:      15563
  AVG DBUS CONGESTED CYCLE: 10.97
Channel 0 WQ ROW_BUFFER_HIT:        209
  ROW_BUFFER_MISS:        389
  FULL:          0
Channel 0 REFRESHES ISSUED:        344
