[VMEM] WARNING: physical memory size is smaller than virtual memory size.

*** ChampSim Multicore Out-of-Order Simulator ***
Warmup Instructions: 1000000
Simulation Instructions: 5000000
Number of CPUs: 1
Page size: 4096

Off-chip DRAM Size: 16 GiB Channels: 1 Width: 64-bit Data Rate: 3205 MT/s
Warmup finished CPU 0 instructions: 1000000 cycles: 289759 cumulative IPC: 3.451 (Simulation time: 00 hr 00 min 02 sec)
Warmup complete CPU 0 instructions: 1000000 cycles: 289759 cumulative IPC: 3.451 (Simulation time: 00 hr 00 min 02 sec)
Simulation finished CPU 0 instructions: 5000002 cycles: 3660657 cumulative IPC: 1.366 (Simulation time: 00 hr 00 min 22 sec)
Simulation complete CPU 0 instructions: 5000002 cycles: 3660657 cumulative IPC: 1.366 (Simulation time: 00 hr 00 min 22 sec)

ChampSim completed all CPUs

=== Simulation ===
CPU 0 runs traces/644.nab_s-12459B.champsimtrace.xz

Region of Interest Statistics

CPU 0 cumulative IPC: 1.366 instructions: 5000002 cycles: 3660657
CPU 0 Branch Prediction Accuracy: 90.89% MPKI: 13.01 Average ROB Occupancy at Mispredict: 40.94
Branch type MPKI
BRANCH_DIRECT_JUMP: 0.334
BRANCH_INDIRECT: 0
BRANCH_CONDITIONAL: 12.68
BRANCH_DIRECT_CALL: 0
BRANCH_INDIRECT_CALL: 0
BRANCH_RETURN: 0.0002

cpu0->cpu0_STLB TOTAL        ACCESS:       1086 HIT:       1072 MISS:         14 MSHR_MERGE:          0
cpu0->cpu0_STLB LOAD         ACCESS:       1086 HIT:       1072 MISS:         14 MSHR_MERGE:          0
cpu0->cpu0_STLB RFO          ACCESS:          0 HIT:          0 MISS:          0 MSHR_MERGE:          0
cpu0->cpu0_STLB PREFETCH     ACCESS:          0 HIT:          0 MISS:          0 MSHR_MERGE:          0
cpu0->cpu0_STLB WRITE        ACCESS:          0 HIT:          0 MISS:          0 MSHR_MERGE:          0
cpu0->cpu0_STLB TRANSLATION  ACCESS:          0 HIT:          0 MISS:          0 MSHR_MERGE:          0
cpu0->cpu0_STLB PREFETCH REQUESTED:          0 ISSUED:          0 USEFUL:          0 USELESS:          0
cpu0->cpu0_STLB AVERAGE MISS LATENCY: 668.9 cycles
cpu0->cpu0_L2C TOTAL        ACCESS:      33222 HIT:      28620 MISS:       4602 MSHR_MERGE:          0
cpu0->cpu0_L2C LOAD         ACCESS:      29211 HIT:      25360 MISS:       3851 MSHR_MERGE:          0
cpu0->cpu0_L2C RFO          ACCESS:       1630 HIT:        897 MISS:        733 MSHR_MERGE:          0
cpu0->cpu0_L2C PREFETCH     ACCESS:          0 HIT:          0 MISS:          0 MSHR_MERGE:          0
cpu0->cpu0_L2C WRITE        ACCESS:       2360 HIT:       2360 MISS:          0 MSHR_MERGE:          0
cpu0->cpu0_L2C TRANSLATION  ACCESS:         21 HIT:          3 MISS:         18 MSHR_MERGE:          0
cpu0->cpu0_L2C PREFETCH REQUESTED:          0 ISSUED:          0 USEFUL:          0 USELESS:          0
cpu0->cpu0_L2C AVERAGE MISS LATENCY: 55.76 cycles
cpu0->cpu0_L1I TOTAL        ACCESS:      17802 HIT:      17802 MISS:          0 MSHR_MERGE:          0
cpu0->cpu0_L1I LOAD         ACCESS:      17802 HIT:      17802 MISS:          0 MSHR_MERGE:          0
cpu0->cpu0_L1I RFO          ACCESS:          0 HIT:          0 MISS:          0 MSHR_MERGE:          0
cpu0->cpu0_L1I PREFETCH     ACCESS:          0 HIT:          0 MISS:          0 MSHR_MERGE:          0
cpu0->cpu0_L1I WRITE        ACCESS:          0 HIT:          0 MISS:          0 MSHR_MERGE:          0
cpu0->cpu0_L1I TRANSLATION  ACCESS:          0 HIT:          0 MISS:          0 MSHR_MERGE:          0
cpu0->cpu0_L1I PREFETCH REQUESTED:          0 ISSUED:          0 USEFUL:          0 USELESS:          0
cpu0->cpu0_L1I AVERAGE MISS LATENCY: - cycles
cpu0->cpu0_L1D TOTAL        ACCESS:    1395224 HIT:    1347088 MISS:      48136 MSHR_MERGE:      17274
cpu0->cpu0_L1D LOAD         ACCESS:     893590 HIT:     858195 MISS:      35395 MSHR_MERGE:       6184
cpu0->cpu0_L1D RFO          ACCESS:          0 HIT:          0 MISS:          0 MSHR_MERGE:          0
cpu0->cpu0_L1D PREFETCH     ACCESS:          0 HIT:          0 MISS:          0 MSHR_MERGE:          0
cpu0->cpu0_L1D WRITE        ACCESS:     501606 HIT:     488887 MISS:      12719 MSHR_MERGE:      11089
cpu0->cpu0_L1D TRANSLATION  ACCESS:         28 HIT:          6 MISS:         22 MSHR_MERGE:          1
cpu0->cpu0_L1D PREFETCH REQUESTED:          0 ISSUED:          0 USEFUL:          0 USELESS:          0
cpu0->cpu0_L1D AVERAGE MISS LATENCY: 16.47 cycles
cpu0->cpu0_ITLB TOTAL        ACCESS:      14141 HIT:      14141 MISS:          0 MSHR_MERGE:          0
cpu0->cpu0_ITLB LOAD         ACCESS:      14141 HIT:      14141 MISS:          0 MSHR_MERGE:          0
cpu0->cpu0_ITLB RFO          ACCESS:          0 HIT:          0 MISS:          0 MSHR_MERGE:          0
cpu0->cpu0_ITLB PREFETCH     ACCESS:          0 HIT:          0 MISS:          0 MSHR_MERGE:          0
cpu0->cpu0_ITLB WRITE        ACCESS:          0 HIT:          0 MISS:          0 MSHR_MERGE:          0
cpu0->cpu0_ITLB TRANSLATION  ACCESS:          0 HIT:          0 MISS:          0 MSHR_MERGE:          0
cpu0->cpu0_ITLB PREFETCH REQUESTED:          0 ISSUED:          0 USEFUL:          0 USELESS:          0
cpu0->cpu0_ITLB AVERAGE MISS LATENCY: - cycles
cpu0->cpu0_DTLB TOTAL        ACCESS:    1343966 HIT:    1342554 MISS:       1412 MSHR_MERGE:        326
cpu0->cpu0_DTLB LOAD         ACCESS:    1343966 HIT:    1342554 MISS:       1412 MSHR_MERGE:        326
cpu0->cpu0_DTLB RFO          ACCESS:          0 HIT:          0 MISS:          0 MSHR_MERGE:          0
cpu0->cpu0_DTLB PREFETCH     ACCESS:          0 HIT:          0 MISS:          0 MSHR_MERGE:          0
cpu0->cpu0_DTLB WRITE        ACCESS:          0 HIT:          0 MISS:          0 MSHR_MERGE:          0
cpu0->cpu0_DTLB TRANSLATION  ACCESS:          0 HIT:          0 MISS:          0 MSHR_MERGE:          0
cpu0->cpu0_DTLB PREFETCH REQUESTED:          0 ISSUED:          0 USEFUL:          0 USELESS:          0
cpu0->cpu0_DTLB AVERAGE MISS LATENCY: 13.64 cycles
cpu0->LLC TOTAL        ACCESS:       4727 HIT:       3586 MISS:       1141 MSHR_MERGE:          0
cpu0->LLC LOAD         ACCESS:       3851 HIT:       3450 MISS:        401 MSHR_MERGE:          0
cpu0->LLC RFO          ACCESS:        733 HIT:         11 MISS:        722 MSHR_MERGE:          0
cpu0->LLC PREFETCH     ACCESS:          0 HIT:          0 MISS:          0 MSHR_MERGE:          0
cpu0->LLC WRITE        ACCESS:        125 HIT:        125 MISS:          0 MSHR_MERGE:          0
cpu0->LLC TRANSLATION  ACCESS:         18 HIT:          0 MISS:         18 MSHR_MERGE:          0
cpu0->LLC PREFETCH REQUESTED:          0 ISSUED:          0 USEFUL:          0 USELESS:          0
cpu0->LLC AVERAGE MISS LATENCY: 163.4 cycles

DRAM Statistics

Channel 0 RQ ROW_BUFFER_HIT:        242
  ROW_BUFFER_MISS:        899
  AVG DBUS CONGESTED CYCLE: 2.675
Channel 0 WQ ROW_BUFFER_HIT:          0
  ROW_BUFFER_MISS:          0
  FULL:          0
Channel 0 REFRESHES ISSUED:        305
