[VMEM] WARNING: physical memory size is smaller than virtual memory size.

*** ChampSim Multicore Out-of-Order Simulator ***
Warmup Instructions: 1000000
Simulation Instructions: 5000000
Number of CPUs: 1
Page size: 4096

Off-chip DRAM Size: 16 GiB Channels: 1 Width: 64-bit Data Rate: 3205 MT/s
Warmup finished CPU 0 instructions: 1000002 cycles: 263789 cumulative IPC: 3.791 (Simulation time: 00 hr 00 min 02 sec)
Warmup complete CPU 0 instructions: 1000002 cycles: 263789 cumulative IPC: 3.791 (Simulation time: 00 hr 00 min 02 sec)
Simulation finished CPU 0 instructions: 5000002 cycles: 4864293 cumulative IPC: 1.028 (Simulation time: 00 hr 00 min 36 sec)
Simulation complete CPU 0 instructions: 5000002 cycles: 4864293 cumulative IPC: 1.028 (Simulation time: 00 hr 00 min 36 sec)

ChampSim completed all CPUs

=== Simulation ===
CPU 0 runs traces/654.roms_s-293B.champsimtrace.xz

Region of Interest Statistics

CPU 0 cumulative IPC: 1.028 instructions: 5000002 cycles: 4864293
CPU 0 Branch Prediction Accuracy: 99.77% MPKI: 0.0354 Average ROB Occupancy at Mispredict: 293.9
Branch type MPKI
BRANCH_DIRECT_JUMP: 0.0002
BRANCH_INDIRECT: 0
BRANCH_CONDITIONAL: 0.0352
BRANCH_DIRECT_CALL: 0
BRANCH_INDIRECT_CALL: 0
BRANCH_RETURN: 0

cpu0->cpu0_STLB TOTAL        ACCESS:       1269 HIT:        371 MISS:        898 MSHR_MERGE:          0
cpu0->cpu0_STLB LOAD         ACCESS:       1269 HIT:        371 MISS:        898 MSHR_MERGE:          0
cpu0->cpu0_STLB RFO          ACCESS:          0 HIT:          0 MISS:          0 MSHR_MERGE:          0
cpu0->cpu0_STLB PREFETCH     ACCESS:          0 HIT:          0 MISS:          0 MSHR_MERGE:          0
cpu0->cpu0_STLB WRITE        ACCESS:          0 HIT:          0 MISS:          0 MSHR_MERGE:          0
cpu0->cpu0_STLB TRANSLATION  ACCESS:          0 HIT:          0 MISS:          0 MSHR_MERGE:          0
cpu0->cpu0_STLB PREFETCH REQUESTED:          0 ISSUED:          0 USEFUL:          0 USELESS:          0
cpu0->cpu0_STLB AVERAGE MISS LATENCY: 925.6 cycles
cpu0->cpu0_L2C TOTAL        ACCESS:      96119 HIT:      38468 MISS:      57651 MSHR_MERGE:          0
cpu0->cpu0_L2C LOAD         ACCESS:      43875 HIT:      12913 MISS:      30962 MSHR_MERGE:          0
cpu0->cpu0_L2C RFO          ACCESS:      25181 HIT:        198 MISS:      24983 MSHR_MERGE:          0
cpu0->cpu0_L2C PREFETCH     ACCESS:          0 HIT:          0 MISS:          0 MSHR_MERGE:          0
cpu0->cpu0_L2C WRITE        ACCESS:      25265 HIT:      25226 MISS:         39 MSHR_MERGE:          0
cpu0->cpu0_L2C TRANSLATION  ACCESS:       1798 HIT:        131 MISS:       1667 MSHR_MERGE:          0
cpu0->cpu0_L2C PREFETCH REQUESTED:          0 ISSUED:          0 USEFUL:          0 USELESS:          0
cpu0->cpu0_L2C AVERAGE MISS LATENCY: 183.2 cycles
cpu0->cpu0_L1I TOTAL        ACCESS:    1003104 HIT:    1003040 MISS:         64 MSHR_MERGE:         22
cpu0->cpu0_L1I LOAD         ACCESS:    1003104 HIT:    1003040 MISS:         64 MSHR_MERGE:         22
cpu0->cpu0_L1I RFO          ACCESS:          0 HIT:          0 MISS:          0 MSHR_MERGE:          0
cpu0->cpu0_L1I PREFETCH     ACCESS:          0 HIT:          0 MISS:          0 MSHR_MERGE:          0
cpu0->cpu0_L1I WRITE        ACCESS:          0 HIT:          0 MISS:          0 MSHR_MERGE:          0
cpu0->cpu0_L1I TRANSLATION  ACCESS:          0 HIT:          0 MISS:          0 MSHR_MERGE:          0
cpu0->cpu0_L1I PREFETCH REQUESTED:          0 ISSUED:          0 USEFUL:          0 USELESS:          0
cpu0->cpu0_L1I AVERAGE MISS LATENCY: 261.6 cycles
cpu0->cpu0_L1D TOTAL        ACCESS:    1597827 HIT:    1422751 MISS:     175076 MSHR_MERGE:     104258
cpu0->cpu0_L1D LOAD         ACCESS:    1144199 HIT:    1069660 MISS:      74539 MSHR_MERGE:      30705
cpu0->cpu0_L1D RFO          ACCESS:          0 HIT:          0 MISS:          0 MSHR_MERGE:          0
cpu0->cpu0_L1D PREFETCH     ACCESS:          0 HIT:          0 MISS:          0 MSHR_MERGE:          0
cpu0->cpu0_L1D WRITE        ACCESS:     451515 HIT:     352785 MISS:      98730 MSHR_MERGE:      73544
cpu0->cpu0_L1D TRANSLATION  ACCESS:       2113 HIT:        306 MISS:       1807 MSHR_MERGE:          9
cpu0->cpu0_L1D PREFETCH REQUESTED:          0 ISSUED:          0 USEFUL:          0 USELESS:          0
cpu0->cpu0_L1D AVERAGE MISS LATENCY: 157.9 cycles
cpu0->cpu0_ITLB TOTAL        ACCESS:     759489 HIT:     759488 MISS:          1 MSHR_MERGE:          0
cpu0->cpu0_ITLB LOAD         ACCESS:     759489 HIT:     759488 MISS:          1 MSHR_MERGE:          0
cpu0->cpu0_ITLB RFO          ACCESS:          0 HIT:          0 MISS:          0 MSHR_MERGE:          0
cpu0->cpu0_ITLB PREFETCH     ACCESS:          0 HIT:          0 MISS:          0 MSHR_MERGE:          0
cpu0->cpu0_ITLB WRITE        ACCESS:          0 HIT:          0 MISS:          0 MSHR_MERGE:          0
cpu0->cpu0_ITLB TRANSLATION  ACCESS:          0 HIT:          0 MISS:          0 MSHR_MERGE:          0
cpu0->cpu0_ITLB PREFETCH REQUESTED:          0 ISSUED:          0 USEFUL:          0 USELESS:          0
cpu0->cpu0_ITLB AVERAGE MISS LATENCY: 695 cycles
cpu0->cpu0_DTLB TOTAL        ACCESS:    1516820 HIT:    1511101 MISS:       5719 MSHR_MERGE:       4451
cpu0->cpu0_DTLB LOAD         ACCESS:    1516820 HIT:    1511101 MISS:       5719 MSHR_MERGE:       4451
cpu0->cpu0_DTLB RFO          ACCESS:          0 HIT:          0 MISS:          0 MSHR_MERGE:          0
cpu0->cpu0_DTLB PREFETCH     ACCESS:          0 HIT:          0 MISS:          0 MSHR_MERGE:          0
cpu0->cpu0_DTLB WRITE        ACCESS:          0 HIT:          0 MISS:          0 MSHR_MERGE:          0
cpu0->cpu0_DTLB TRANSLATION  ACCESS:          0 HIT:          0 MISS:          0 MSHR_MERGE:          0
cpu0->cpu0_DTLB PREFETCH REQUESTED:          0 ISSUED:          0 USEFUL:          0 USELESS:          0
cpu0->cpu0_DTLB AVERAGE MISS LATENCY: 660.7 cycles
cpu0->LLC TOTAL        ACCESS:      81619 HIT:      37364 MISS:      44255 MSHR_MERGE:          0
cpu0->LLC LOAD         ACCESS:      30962 HIT:      11728 MISS:      19234 MSHR_MERGE:          0
cpu0->LLC RFO          ACCESS:      24983 HIT:       1617 MISS:      23366 MSHR_MERGE:          0
cpu0->LLC PREFETCH     ACCESS:          0 HIT:          0 MISS:          0 MSHR_MERGE:          0
cpu0->LLC WRITE        ACCESS:      24007 HIT:      24006 MISS:          1 MSHR_MERGE:          0
cpu0->LLC TRANSLATION  ACCESS:       1667 HIT:         13 MISS:       1654 MSHR_MERGE:          0
cpu0->LLC PREFETCH REQUESTED:          0 ISSUED:          0 USEFUL:          0 USELESS:          0
cpu0->LLC AVERAGE MISS LATENCY: 218.2 cycles

DRAM Statistics

Channel 0 RQ ROW_BUFFER_HIT:        258
  ROW_BUFFER_MISS:      43909
  AVG DBUS CONGESTED CYCLE: 8.414
Channel 0 WQ ROW_BUFFER_HIT:       3170
  ROW_BUFFER_MISS:       6688
  FULL:          0
Channel 0 REFRESHES ISSUED:        406
