[VMEM] WARNING: physical memory size is smaller than virtual memory size.

*** ChampSim Multicore Out-of-Order Simulator ***
Warmup Instructions: 2000000
Simulation Instructions: 10000000
Number of CPUs: 1
Page size: 4096

Off-chip DRAM Size: 16 GiB Channels: 1 Width: 64-bit Data Rate: 3205 MT/s
Warmup finished CPU 0 instructions: 2000000 cycles: 943411 cumulative IPC: 2.12 (Simulation time: 00 hr 00 min 08 sec)
Warmup complete CPU 0 instructions: 2000000 cycles: 943411 cumulative IPC: 2.12 (Simulation time: 00 hr 00 min 08 sec)
Heartbeat CPU 0 instructions: 10000001 cycles: 34663843 heartbeat IPC: 0.2885 cumulative IPC: 0.2372 (Simulation time: 00 hr 03 min 41 sec)
Simulation finished CPU 0 instructions: 10000003 cycles: 42220472 cumulative IPC: 0.2369 (Simulation time: 00 hr 04 min 35 sec)
Simulation complete CPU 0 instructions: 10000003 cycles: 42220472 cumulative IPC: 0.2369 (Simulation time: 00 hr 04 min 35 sec)

ChampSim completed all CPUs

=== Simulation ===
CPU 0 runs traces/605.mcf_s-1536B.champsimtrace.xz

Region of Interest Statistics

CPU 0 cumulative IPC: 0.2369 instructions: 10000003 cycles: 42220472
CPU 0 Branch Prediction Accuracy: 99.98% MPKI: 0.0315 Average ROB Occupancy at Mispredict: 259.4
Branch type MPKI
BRANCH_DIRECT_JUMP: 0
BRANCH_INDIRECT: 0
BRANCH_CONDITIONAL: 0.0315
BRANCH_DIRECT_CALL: 0
BRANCH_INDIRECT_CALL: 0
BRANCH_RETURN: 0

cpu0->cpu0_STLB TOTAL        ACCESS:     298850 HIT:      73170 MISS:     225680 MSHR_MERGE:          0
cpu0->cpu0_STLB LOAD         ACCESS:     298850 HIT:      73170 MISS:     225680 MSHR_MERGE:          0
cpu0->cpu0_STLB RFO          ACCESS:          0 HIT:          0 MISS:          0 MSHR_MERGE:          0
cpu0->cpu0_STLB PREFETCH     ACCESS:          0 HIT:          0 MISS:          0 MSHR_MERGE:          0
cpu0->cpu0_STLB WRITE        ACCESS:          0 HIT:          0 MISS:          0 MSHR_MERGE:          0
cpu0->cpu0_STLB TRANSLATION  ACCESS:          0 HIT:          0 MISS:          0 MSHR_MERGE:          0
cpu0->cpu0_STLB PREFETCH REQUESTED:          0 ISSUED:          0 USEFUL:          0 USELESS:          0
cpu0->cpu0_STLB AVERAGE MISS LATENCY: 86.93 cycles
cpu0->cpu0_L2C TOTAL        ACCESS:    1106618 HIT:     417047 MISS:     689571 MSHR_MERGE:          0
cpu0->cpu0_L2C LOAD         ACCESS:     407125 HIT:      95447 MISS:     311678 MSHR_MERGE:          0
cpu0->cpu0_L2C RFO          ACCESS:      28707 HIT:       7843 MISS:      20864 MSHR_MERGE:          0
cpu0->cpu0_L2C PREFETCH     ACCESS:          0 HIT:          0 MISS:          0 MSHR_MERGE:          0
cpu0->cpu0_L2C WRITE        ACCESS:     222676 HIT:     222676 MISS:          0 MSHR_MERGE:          0
cpu0->cpu0_L2C TRANSLATION  ACCESS:     448110 HIT:      91081 MISS:     357029 MSHR_MERGE:          0
cpu0->cpu0_L2C PREFETCH REQUESTED:          0 ISSUED:          0 USEFUL:          0 USELESS:          0
cpu0->cpu0_L2C AVERAGE MISS LATENCY: 108.7 cycles
cpu0->cpu0_L1I TOTAL        ACCESS:    2216311 HIT:    2216311 MISS:          0 MSHR_MERGE:          0
cpu0->cpu0_L1I LOAD         ACCESS:    2216311 HIT:    2216311 MISS:          0 MSHR_MERGE:          0
cpu0->cpu0_L1I RFO          ACCESS:          0 HIT:          0 MISS:          0 MSHR_MERGE:          0
cpu0->cpu0_L1I PREFETCH     ACCESS:          0 HIT:          0 MISS:          0 MSHR_MERGE:          0
cpu0->cpu0_L1I WRITE        ACCESS:          0 HIT:          0 MISS:          0 MSHR_MERGE:          0
cpu0->cpu0_L1I TRANSLATION  ACCESS:          0 HIT:          0 MISS:          0 MSHR_MERGE:          0
cpu0->cpu0_L1I PREFETCH REQUESTED:          0 ISSUED:          0 USEFUL:          0 USELESS:          0
cpu0->cpu0_L1I AVERAGE MISS LATENCY: - cycles
cpu0->cpu0_L1D TOTAL        ACCESS:    2924398 HIT:    1703083 MISS:    1221315 MSHR_MERGE:     337366
cpu0->cpu0_L1D LOAD         ACCESS:    1994215 HIT:    1255214 MISS:     739001 MSHR_MERGE:     331876
cpu0->cpu0_L1D RFO          ACCESS:          0 HIT:          0 MISS:          0 MSHR_MERGE:          0
cpu0->cpu0_L1D PREFETCH     ACCESS:          0 HIT:          0 MISS:          0 MSHR_MERGE:          0
cpu0->cpu0_L1D WRITE        ACCESS:     443442 HIT:     414717 MISS:      28725 MSHR_MERGE:         11
cpu0->cpu0_L1D TRANSLATION  ACCESS:     486741 HIT:      33152 MISS:     453589 MSHR_MERGE:       5479
cpu0->cpu0_L1D PREFETCH REQUESTED:          0 ISSUED:          0 USEFUL:          0 USELESS:          0
cpu0->cpu0_L1D AVERAGE MISS LATENCY: 93.65 cycles
cpu0->cpu0_ITLB TOTAL        ACCESS:    1985580 HIT:    1985580 MISS:          0 MSHR_MERGE:          0
cpu0->cpu0_ITLB LOAD         ACCESS:    1985580 HIT:    1985580 MISS:          0 MSHR_MERGE:          0
cpu0->cpu0_ITLB RFO          ACCESS:          0 HIT:          0 MISS:          0 MSHR_MERGE:          0
cpu0->cpu0_ITLB PREFETCH     ACCESS:          0 HIT:          0 MISS:          0 MSHR_MERGE:          0
cpu0->cpu0_ITLB WRITE        ACCESS:          0 HIT:          0 MISS:          0 MSHR_MERGE:          0
cpu0->cpu0_ITLB TRANSLATION  ACCESS:          0 HIT:          0 MISS:          0 MSHR_MERGE:          0
cpu0->cpu0_ITLB PREFETCH REQUESTED:          0 ISSUED:          0 USEFUL:          0 USELESS:          0
cpu0->cpu0_ITLB AVERAGE MISS LATENCY: - cycles
cpu0->cpu0_DTLB TOTAL        ACCESS:    2417917 HIT:    1726354 MISS:     691563 MSHR_MERGE:     392714
cpu0->cpu0_DTLB LOAD         ACCESS:    2417917 HIT:    1726354 MISS:     691563 MSHR_MERGE:     392714
cpu0->cpu0_DTLB RFO          ACCESS:          0 HIT:          0 MISS:          0 MSHR_MERGE:          0
cpu0->cpu0_DTLB PREFETCH     ACCESS:          0 HIT:          0 MISS:          0 MSHR_MERGE:          0
cpu0->cpu0_DTLB WRITE        ACCESS:          0 HIT:          0 MISS:          0 MSHR_MERGE:          0
cpu0->cpu0_DTLB TRANSLATION  ACCESS:          0 HIT:          0 MISS:          0 MSHR_MERGE:          0
cpu0->cpu0_DTLB PREFETCH REQUESTED:          0 ISSUED:          0 USEFUL:          0 USELESS:          0
cpu0->cpu0_DTLB AVERAGE MISS LATENCY: 71.4 cycles
cpu0->LLC TOTAL        ACCESS:     911293 HIT:     630928 MISS:     280365 MSHR_MERGE:          0
cpu0->LLC LOAD         ACCESS:     311678 HIT:      53027 MISS:     258651 MSHR_MERGE:          0
cpu0->LLC RFO          ACCESS:      20864 HIT:      20859 MISS:          5 MSHR_MERGE:          0
cpu0->LLC PREFETCH     ACCESS:          0 HIT:          0 MISS:          0 MSHR_MERGE:          0
cpu0->LLC WRITE        ACCESS:     221723 HIT:     221723 MISS:          0 MSHR_MERGE:          0
cpu0->LLC TRANSLATION  ACCESS:     357028 HIT:     335319 MISS:      21709 MSHR_MERGE:          0
cpu0->LLC PREFETCH REQUESTED:          0 ISSUED:          0 USEFUL:          0 USELESS:          0
cpu0->LLC AVERAGE MISS LATENCY: 229.3 cycles

DRAM Statistics

Channel 0 RQ ROW_BUFFER_HIT:         69
  ROW_BUFFER_MISS:     280296
  AVG DBUS CONGESTED CYCLE: 5.875
Channel 0 WQ ROW_BUFFER_HIT:      73057
  ROW_BUFFER_MISS:     150162
  FULL:          0
Channel 0 REFRESHES ISSUED:       3518
