[VMEM] WARNING: physical memory size is smaller than virtual memory size.

*** ChampSim Multicore Out-of-Order Simulator ***
Warmup Instructions: 2000000
Simulation Instructions: 10000000
Number of CPUs: 1
Page size: 4096

Off-chip DRAM Size: 16 GiB Channels: 1 Width: 64-bit Data Rate: 3205 MT/s
Warmup finished CPU 0 instructions: 2000004 cycles: 666941 cumulative IPC: 2.999 (Simulation time: 00 hr 00 min 06 sec)
Warmup complete CPU 0 instructions: 2000004 cycles: 666941 cumulative IPC: 2.999 (Simulation time: 00 hr 00 min 06 sec)
Heartbeat CPU 0 instructions: 10000001 cycles: 18515228 heartbeat IPC: 0.5401 cumulative IPC: 0.4482 (Simulation time: 00 hr 02 min 14 sec)
Simulation finished CPU 0 instructions: 10000004 cycles: 22130706 cumulative IPC: 0.4519 (Simulation time: 00 hr 02 min 44 sec)
Simulation complete CPU 0 instructions: 10000004 cycles: 22130706 cumulative IPC: 0.4519 (Simulation time: 00 hr 02 min 44 sec)

ChampSim completed all CPUs

=== Simulation ===
CPU 0 runs traces/619.lbm_s-2676B.champsimtrace.xz

Region of Interest Statistics

CPU 0 cumulative IPC: 0.4519 instructions: 10000004 cycles: 22130706
CPU 0 Branch Prediction Accuracy: 97.17% MPKI: 0.495 Average ROB Occupancy at Mispredict: 246.6
Branch type MPKI
BRANCH_DIRECT_JUMP: 0
BRANCH_INDIRECT: 0
BRANCH_CONDITIONAL: 0.495
BRANCH_DIRECT_CALL: 0
BRANCH_INDIRECT_CALL: 0
BRANCH_RETURN: 0

cpu0->cpu0_STLB TOTAL        ACCESS:      13234 HIT:       6052 MISS:       7182 MSHR_MERGE:          0
cpu0->cpu0_STLB LOAD         ACCESS:      13234 HIT:       6052 MISS:       7182 MSHR_MERGE:          0
cpu0->cpu0_STLB RFO          ACCESS:          0 HIT:          0 MISS:          0 MSHR_MERGE:          0
cpu0->cpu0_STLB PREFETCH     ACCESS:          0 HIT:          0 MISS:          0 MSHR_MERGE:          0
cpu0->cpu0_STLB WRITE        ACCESS:          0 HIT:          0 MISS:          0 MSHR_MERGE:          0
cpu0->cpu0_STLB TRANSLATION  ACCESS:          0 HIT:          0 MISS:          0 MSHR_MERGE:          0
cpu0->cpu0_STLB PREFETCH REQUESTED:          0 ISSUED:          0 USEFUL:          0 USELESS:          0
cpu0->cpu0_STLB AVERAGE MISS LATENCY: 1077 cycles
cpu0->cpu0_L2C TOTAL        ACCESS:    1418646 HIT:     940100 MISS:     478546 MSHR_MERGE:          0
cpu0->cpu0_L2C LOAD         ACCESS:     114888 HIT:          4 MISS:     114884 MSHR_MERGE:          0
cpu0->cpu0_L2C RFO          ACCESS:     647828 HIT:     292254 MISS:     355574 MSHR_MERGE:          0
cpu0->cpu0_L2C PREFETCH     ACCESS:          0 HIT:          0 MISS:          0 MSHR_MERGE:          0
cpu0->cpu0_L2C WRITE        ACCESS:     647841 HIT:     647841 MISS:          0 MSHR_MERGE:          0
cpu0->cpu0_L2C TRANSLATION  ACCESS:       8089 HIT:          1 MISS:       8088 MSHR_MERGE:          0
cpu0->cpu0_L2C PREFETCH REQUESTED:          0 ISSUED:          0 USEFUL:          0 USELESS:          0
cpu0->cpu0_L2C AVERAGE MISS LATENCY: 488.5 cycles
cpu0->cpu0_L1I TOTAL        ACCESS:    1619026 HIT:    1619026 MISS:          0 MSHR_MERGE:          0
cpu0->cpu0_L1I LOAD         ACCESS:    1619026 HIT:    1619026 MISS:          0 MSHR_MERGE:          0
cpu0->cpu0_L1I RFO          ACCESS:          0 HIT:          0 MISS:          0 MSHR_MERGE:          0
cpu0->cpu0_L1I PREFETCH     ACCESS:          0 HIT:          0 MISS:          0 MSHR_MERGE:          0
cpu0->cpu0_L1I WRITE        ACCESS:          0 HIT:          0 MISS:          0 MSHR_MERGE:          0
cpu0->cpu0_L1I TRANSLATION  ACCESS:          0 HIT:          0 MISS:          0 MSHR_MERGE:          0
cpu0->cpu0_L1I PREFETCH REQUESTED:          0 ISSUED:          0 USEFUL:          0 USELESS:          0
cpu0->cpu0_L1I AVERAGE MISS LATENCY: - cycles
cpu0->cpu0_L1D TOTAL        ACCESS:    2453673 HIT:    1508955 MISS:     944718 MSHR_MERGE:     173898
cpu0->cpu0_L1D LOAD         ACCESS:     627107 HIT:     370739 MISS:     256368 MSHR_MERGE:     141480
cpu0->cpu0_L1D RFO          ACCESS:          0 HIT:          0 MISS:          0 MSHR_MERGE:          0
cpu0->cpu0_L1D PREFETCH     ACCESS:          0 HIT:          0 MISS:          0 MSHR_MERGE:          0
cpu0->cpu0_L1D WRITE        ACCESS:    1812193 HIT:    1131932 MISS:     680261 MSHR_MERGE:      32418
cpu0->cpu0_L1D TRANSLATION  ACCESS:      14373 HIT:       6284 MISS:       8089 MSHR_MERGE:          0
cpu0->cpu0_L1D PREFETCH REQUESTED:          0 ISSUED:          0 USEFUL:          0 USELESS:          0
cpu0->cpu0_L1D AVERAGE MISS LATENCY: 312.8 cycles
cpu0->cpu0_ITLB TOTAL        ACCESS:    1207299 HIT:    1207299 MISS:          0 MSHR_MERGE:          0
cpu0->cpu0_ITLB LOAD         ACCESS:    1207299 HIT:    1207299 MISS:          0 MSHR_MERGE:          0
cpu0->cpu0_ITLB RFO          ACCESS:          0 HIT:          0 MISS:          0 MSHR_MERGE:          0
cpu0->cpu0_ITLB PREFETCH     ACCESS:          0 HIT:          0 MISS:          0 MSHR_MERGE:          0
cpu0->cpu0_ITLB WRITE        ACCESS:          0 HIT:          0 MISS:          0 MSHR_MERGE:          0
cpu0->cpu0_ITLB TRANSLATION  ACCESS:          0 HIT:          0 MISS:          0 MSHR_MERGE:          0
cpu0->cpu0_ITLB PREFETCH REQUESTED:          0 ISSUED:          0 USEFUL:          0 USELESS:          0
cpu0->cpu0_ITLB AVERAGE MISS LATENCY: - cycles
cpu0->cpu0_DTLB TOTAL        ACCESS:    2300494 HIT:    2254819 MISS:      45675 MSHR_MERGE:      32441
cpu0->cpu0_DTLB LOAD         ACCESS:    2300494 HIT:    2254819 MISS:      45675 MSHR_MERGE:      32441
cpu0->cpu0_DTLB RFO          ACCESS:          0 HIT:          0 MISS:          0 MSHR_MERGE:          0
cpu0->cpu0_DTLB PREFETCH     ACCESS:          0 HIT:          0 MISS:          0 MSHR_MERGE:          0
cpu0->cpu0_DTLB WRITE        ACCESS:          0 HIT:          0 MISS:          0 MSHR_MERGE:          0
cpu0->cpu0_DTLB TRANSLATION  ACCESS:          0 HIT:          0 MISS:          0 MSHR_MERGE:          0
cpu0->cpu0_DTLB PREFETCH REQUESTED:          0 ISSUED:          0 USEFUL:          0 USELESS:          0
cpu0->cpu0_DTLB AVERAGE MISS LATENCY: 590.3 cycles
cpu0->LLC TOTAL        ACCESS:     834010 HIT:     366438 MISS:     467572 MSHR_MERGE:          0
cpu0->LLC LOAD         ACCESS:     114884 HIT:          6 MISS:     114878 MSHR_MERGE:          0
cpu0->LLC RFO          ACCESS:     355573 HIT:      10971 MISS:     344602 MSHR_MERGE:          0
cpu0->LLC PREFETCH     ACCESS:          0 HIT:          0 MISS:          0 MSHR_MERGE:          0
cpu0->LLC WRITE        ACCESS:     355465 HIT:     355461 MISS:          4 MSHR_MERGE:          0
cpu0->LLC TRANSLATION  ACCESS:       8088 HIT:          0 MISS:       8088 MSHR_MERGE:          0
cpu0->LLC PREFETCH REQUESTED:          0 ISSUED:          0 USEFUL:          0 USELESS:          0
cpu0->LLC AVERAGE MISS LATENCY: 483.5 cycles

DRAM Statistics

Channel 0 RQ ROW_BUFFER_HIT:      25206
  ROW_BUFFER_MISS:     442361
  AVG DBUS CONGESTED CYCLE: 7.277
Channel 0 WQ ROW_BUFFER_HIT:      54295
  ROW_BUFFER_MISS:     290305
  FULL:          0
Channel 0 REFRESHES ISSUED:       1844
