[VMEM] WARNING: physical memory size is smaller than virtual memory size.

*** ChampSim Multicore Out-of-Order Simulator ***
Warmup Instructions: 2000000
Simulation Instructions: 10000000
Number of CPUs: 1
Page size: 4096

Off-chip DRAM Size: 16 GiB Channels: 1 Width: 64-bit Data Rate: 3205 MT/s
Warmup finished CPU 0 instructions: 2000000 cycles: 1507420 cumulative IPC: 1.327 (Simulation time: 00 hr 00 min 13 sec)
Warmup complete CPU 0 instructions: 2000000 cycles: 1507420 cumulative IPC: 1.327 (Simulation time: 00 hr 00 min 13 sec)
Heartbeat CPU 0 instructions: 10000002 cycles: 34819130 heartbeat IPC: 0.2872 cumulative IPC: 0.2402 (Simulation time: 00 hr 02 min 39 sec)
Simulation finished CPU 0 instructions: 10000002 cycles: 41449406 cumulative IPC: 0.2413 (Simulation time: 00 hr 03 min 14 sec)
Simulation complete CPU 0 instructions: 10000002 cycles: 41449406 cumulative IPC: 0.2413 (Simulation time: 00 hr 03 min 14 sec)

ChampSim completed all CPUs

=== Simulation ===
CPU 0 runs traces/620.omnetpp_s-141B.champsimtrace.xz

Region of Interest Statistics

CPU 0 cumulative IPC: 0.2413 instructions: 10000002 cycles: 41449406
CPU 0 Branch Prediction Accuracy: 92.23% MPKI: 16.31 Average ROB Occupancy at Mispredict: 38.43
Branch type MPKI
BRANCH_DIRECT_JUMP: 0.8198
BRANCH_INDIRECT: 0.366
BRANCH_CONDITIONAL: 13.82
BRANCH_DIRECT_CALL: 0.004
BRANCH_INDIRECT_CALL: 0.8598
BRANCH_RETURN: 0.4394

cpu0->cpu0_STLB TOTAL        ACCESS:     225466 HIT:     176544 MISS:      48922 MSHR_MERGE:          0
cpu0->cpu0_STLB LOAD         ACCESS:     225466 HIT:     176544 MISS:      48922 MSHR_MERGE:          0
cpu0->cpu0_STLB RFO          ACCESS:          0 HIT:          0 MISS:          0 MSHR_MERGE:          0
cpu0->cpu0_STLB PREFETCH     ACCESS:          0 HIT:          0 MISS:          0 MSHR_MERGE:          0
cpu0->cpu0_STLB WRITE        ACCESS:          0 HIT:          0 MISS:          0 MSHR_MERGE:          0
cpu0->cpu0_STLB TRANSLATION  ACCESS:          0 HIT:          0 MISS:          0 MSHR_MERGE:          0
cpu0->cpu0_STLB PREFETCH REQUESTED:          0 ISSUED:          0 USEFUL:          0 USELESS:          0
cpu0->cpu0_STLB AVERAGE MISS LATENCY: 427.4 cycles
cpu0->cpu0_L2C TOTAL        ACCESS:     407296 HIT:     179044 MISS:     228252 MSHR_MERGE:          0
cpu0->cpu0_L2C LOAD         ACCESS:     178416 HIT:      51848 MISS:     126568 MSHR_MERGE:          0
cpu0->cpu0_L2C RFO          ACCESS:      23695 HIT:       4694 MISS:      19001 MSHR_MERGE:          0
cpu0->cpu0_L2C PREFETCH     ACCESS:          0 HIT:          0 MISS:          0 MSHR_MERGE:          0
cpu0->cpu0_L2C WRITE        ACCESS:      96154 HIT:      95927 MISS:        227 MSHR_MERGE:          0
cpu0->cpu0_L2C TRANSLATION  ACCESS:     109031 HIT:      26575 MISS:      82456 MSHR_MERGE:          0
cpu0->cpu0_L2C PREFETCH REQUESTED:          0 ISSUED:          0 USEFUL:          0 USELESS:          0
cpu0->cpu0_L2C AVERAGE MISS LATENCY: 152.1 cycles
cpu0->cpu0_L1I TOTAL        ACCESS:    1311991 HIT:    1304687 MISS:       7304 MSHR_MERGE:       1525
cpu0->cpu0_L1I LOAD         ACCESS:    1311991 HIT:    1304687 MISS:       7304 MSHR_MERGE:       1525
cpu0->cpu0_L1I RFO          ACCESS:          0 HIT:          0 MISS:          0 MSHR_MERGE:          0
cpu0->cpu0_L1I PREFETCH     ACCESS:          0 HIT:          0 MISS:          0 MSHR_MERGE:          0
cpu0->cpu0_L1I WRITE        ACCESS:          0 HIT:          0 MISS:          0 MSHR_MERGE:          0
cpu0->cpu0_L1I TRANSLATION  ACCESS:          0 HIT:          0 MISS:          0 MSHR_MERGE:          0
cpu0->cpu0_L1I PREFETCH REQUESTED:          0 ISSUED:          0 USEFUL:          0 USELESS:          0
cpu0->cpu0_L1I AVERAGE MISS LATENCY: 20.3 cycles
cpu0->cpu0_L1D TOTAL        ACCESS:    4116246 HIT:    3710711 MISS:     405535 MSHR_MERGE:     100172
cpu0->cpu0_L1D LOAD         ACCESS:    2176543 HIT:    1953954 MISS:     222589 MSHR_MERGE:      49952
cpu0->cpu0_L1D RFO          ACCESS:          0 HIT:          0 MISS:          0 MSHR_MERGE:          0
cpu0->cpu0_L1D PREFETCH     ACCESS:          0 HIT:          0 MISS:          0 MSHR_MERGE:          0
cpu0->cpu0_L1D WRITE        ACCESS:    1821742 HIT:    1748041 MISS:      73701 MSHR_MERGE:      50006
cpu0->cpu0_L1D TRANSLATION  ACCESS:     117961 HIT:       8716 MISS:     109245 MSHR_MERGE:        214
cpu0->cpu0_L1D PREFETCH REQUESTED:          0 ISSUED:          0 USEFUL:          0 USELESS:          0
cpu0->cpu0_L1D AVERAGE MISS LATENCY: 122.2 cycles
cpu0->cpu0_ITLB TOTAL        ACCESS:    1161933 HIT:    1135171 MISS:      26762 MSHR_MERGE:      11366
cpu0->cpu0_ITLB LOAD         ACCESS:    1161933 HIT:    1135171 MISS:      26762 MSHR_MERGE:      11366
cpu0->cpu0_ITLB RFO          ACCESS:          0 HIT:          0 MISS:          0 MSHR_MERGE:          0
cpu0->cpu0_ITLB PREFETCH     ACCESS:          0 HIT:          0 MISS:          0 MSHR_MERGE:          0
cpu0->cpu0_ITLB WRITE        ACCESS:          0 HIT:          0 MISS:          0 MSHR_MERGE:          0
cpu0->cpu0_ITLB TRANSLATION  ACCESS:          0 HIT:          0 MISS:          0 MSHR_MERGE:          0
cpu0->cpu0_ITLB PREFETCH REQUESTED:          0 ISSUED:          0 USEFUL:          0 USELESS:          0
cpu0->cpu0_ITLB AVERAGE MISS LATENCY: 8.225 cycles
cpu0->cpu0_DTLB TOTAL        ACCESS:    3811155 HIT:    3563600 MISS:     247555 MSHR_MERGE:      37485
cpu0->cpu0_DTLB LOAD         ACCESS:    3811155 HIT:    3563600 MISS:     247555 MSHR_MERGE:      37485
cpu0->cpu0_DTLB RFO          ACCESS:          0 HIT:          0 MISS:          0 MSHR_MERGE:          0
cpu0->cpu0_DTLB PREFETCH     ACCESS:          0 HIT:          0 MISS:          0 MSHR_MERGE:          0
cpu0->cpu0_DTLB WRITE        ACCESS:          0 HIT:          0 MISS:          0 MSHR_MERGE:          0
cpu0->cpu0_DTLB TRANSLATION  ACCESS:          0 HIT:          0 MISS:          0 MSHR_MERGE:          0
cpu0->cpu0_DTLB PREFETCH REQUESTED:          0 ISSUED:          0 USEFUL:          0 USELESS:          0
cpu0->cpu0_DTLB AVERAGE MISS LATENCY: 104.5 cycles
cpu0->LLC TOTAL        ACCESS:     300959 HIT:     134252 MISS:     166707 MSHR_MERGE:          0
cpu0->LLC LOAD         ACCESS:     126568 HIT:      29613 MISS:      96955 MSHR_MERGE:          0
cpu0->LLC RFO          ACCESS:      19001 HIT:       7006 MISS:      11995 MSHR_MERGE:          0
cpu0->LLC PREFETCH     ACCESS:          0 HIT:          0 MISS:          0 MSHR_MERGE:          0
cpu0->LLC WRITE        ACCESS:      72934 HIT:      72661 MISS:        273 MSHR_MERGE:          0
cpu0->LLC TRANSLATION  ACCESS:      82456 HIT:      24972 MISS:      57484 MSHR_MERGE:          0
cpu0->LLC PREFETCH REQUESTED:          0 ISSUED:          0 USEFUL:          0 USELESS:          0
cpu0->LLC AVERAGE MISS LATENCY: 186.8 cycles

DRAM Statistics

Channel 0 RQ ROW_BUFFER_HIT:        557
  ROW_BUFFER_MISS:     165875
  AVG DBUS CONGESTED CYCLE: 20.4
Channel 0 WQ ROW_BUFFER_HIT:      14747
  ROW_BUFFER_MISS:      37208
  FULL:          0
Channel 0 REFRESHES ISSUED:       3454
