[VMEM] WARNING: physical memory size is smaller than virtual memory size.

*** ChampSim Multicore Out-of-Order Simulator ***
Warmup Instructions: 2000000
Simulation Instructions: 10000000
Number of CPUs: 1
Page size: 4096

Off-chip DRAM Size: 16 GiB Channels: 1 Width: 64-bit Data Rate: 3205 MT/s
Warmup finished CPU 0 instructions: 2000000 cycles: 698480 cumulative IPC: 2.863 (Simulation time: 00 hr 00 min 06 sec)
Warmup complete CPU 0 instructions: 2000000 cycles: 698480 cumulative IPC: 2.863 (Simulation time: 00 hr 00 min 06 sec)
Heartbeat CPU 0 instructions: 10000001 cycles: 17889889 heartbeat IPC: 0.559 cumulative IPC: 0.4653 (Simulation time: 00 hr 01 min 22 sec)
Simulation finished CPU 0 instructions: 10000000 cycles: 21456444 cumulative IPC: 0.4661 (Simulation time: 00 hr 01 min 41 sec)
Simulation complete CPU 0 instructions: 10000000 cycles: 21456444 cumulative IPC: 0.4661 (Simulation time: 00 hr 01 min 41 sec)

ChampSim completed all CPUs

=== Simulation ===
CPU 0 runs traces/623.xalancbmk_s-165B.champsimtrace.xz

Region of Interest Statistics

CPU 0 cumulative IPC: 0.4661 instructions: 10000000 cycles: 21456444
CPU 0 Branch Prediction Accuracy: 95.55% MPKI: 12.4 Average ROB Occupancy at Mispredict: 48.07
Branch type MPKI
BRANCH_DIRECT_JUMP: 0
BRANCH_INDIRECT: 0
BRANCH_CONDITIONAL: 12.4
BRANCH_DIRECT_CALL: 0
BRANCH_INDIRECT_CALL: 0
BRANCH_RETURN: 0.0001

cpu0->cpu0_STLB TOTAL        ACCESS:       3389 HIT:       3374 MISS:         15 MSHR_MERGE:          0
cpu0->cpu0_STLB LOAD         ACCESS:       3389 HIT:       3374 MISS:         15 MSHR_MERGE:          0
cpu0->cpu0_STLB RFO          ACCESS:          0 HIT:          0 MISS:          0 MSHR_MERGE:          0
cpu0->cpu0_STLB PREFETCH     ACCESS:          0 HIT:          0 MISS:          0 MSHR_MERGE:          0
cpu0->cpu0_STLB WRITE        ACCESS:          0 HIT:          0 MISS:          0 MSHR_MERGE:          0
cpu0->cpu0_STLB TRANSLATION  ACCESS:          0 HIT:          0 MISS:          0 MSHR_MERGE:          0
cpu0->cpu0_STLB PREFETCH REQUESTED:          0 ISSUED:          0 USEFUL:          0 USELESS:          0
cpu0->cpu0_STLB AVERAGE MISS LATENCY: 835.5 cycles
cpu0->cpu0_L2C TOTAL        ACCESS:     190364 HIT:        144 MISS:     190220 MSHR_MERGE:          0
cpu0->cpu0_L2C LOAD         ACCESS:     190185 HIT:         53 MISS:     190132 MSHR_MERGE:          0
cpu0->cpu0_L2C RFO          ACCESS:         62 HIT:          0 MISS:         62 MSHR_MERGE:          0
cpu0->cpu0_L2C PREFETCH     ACCESS:          0 HIT:          0 MISS:          0 MSHR_MERGE:          0
cpu0->cpu0_L2C WRITE        ACCESS:         91 HIT:         91 MISS:          0 MSHR_MERGE:          0
cpu0->cpu0_L2C TRANSLATION  ACCESS:         26 HIT:          0 MISS:         26 MSHR_MERGE:          0
cpu0->cpu0_L2C PREFETCH REQUESTED:          0 ISSUED:          0 USEFUL:          0 USELESS:          0
cpu0->cpu0_L2C AVERAGE MISS LATENCY: 126.5 cycles
cpu0->cpu0_L1I TOTAL        ACCESS:          9 HIT:          9 MISS:          0 MSHR_MERGE:          0
cpu0->cpu0_L1I LOAD         ACCESS:          9 HIT:          9 MISS:          0 MSHR_MERGE:          0
cpu0->cpu0_L1I RFO          ACCESS:          0 HIT:          0 MISS:          0 MSHR_MERGE:          0
cpu0->cpu0_L1I PREFETCH     ACCESS:          0 HIT:          0 MISS:          0 MSHR_MERGE:          0
cpu0->cpu0_L1I WRITE        ACCESS:          0 HIT:          0 MISS:          0 MSHR_MERGE:          0
cpu0->cpu0_L1I TRANSLATION  ACCESS:          0 HIT:          0 MISS:          0 MSHR_MERGE:          0
cpu0->cpu0_L1I PREFETCH REQUESTED:          0 ISSUED:          0 USEFUL:          0 USELESS:          0
cpu0->cpu0_L1I AVERAGE MISS LATENCY: - cycles
cpu0->cpu0_L1D TOTAL        ACCESS:    2760531 HIT:    2137592 MISS:     622939 MSHR_MERGE:     432666
cpu0->cpu0_L1D LOAD         ACCESS:    2629054 HIT:    2006439 MISS:     622615 MSHR_MERGE:     432430
cpu0->cpu0_L1D RFO          ACCESS:          0 HIT:          0 MISS:          0 MSHR_MERGE:          0
cpu0->cpu0_L1D PREFETCH     ACCESS:          0 HIT:          0 MISS:          0 MSHR_MERGE:          0
cpu0->cpu0_L1D WRITE        ACCESS:     131447 HIT:     131151 MISS:        296 MSHR_MERGE:        234
cpu0->cpu0_L1D TRANSLATION  ACCESS:         30 HIT:          2 MISS:         28 MSHR_MERGE:          2
cpu0->cpu0_L1D PREFETCH REQUESTED:          0 ISSUED:          0 USEFUL:          0 USELESS:          0
cpu0->cpu0_L1D AVERAGE MISS LATENCY: 135.5 cycles
cpu0->cpu0_ITLB TOTAL        ACCESS:          5 HIT:          5 MISS:          0 MSHR_MERGE:          0
cpu0->cpu0_ITLB LOAD         ACCESS:          5 HIT:          5 MISS:          0 MSHR_MERGE:          0
cpu0->cpu0_ITLB RFO          ACCESS:          0 HIT:          0 MISS:          0 MSHR_MERGE:          0
cpu0->cpu0_ITLB PREFETCH     ACCESS:          0 HIT:          0 MISS:          0 MSHR_MERGE:          0
cpu0->cpu0_ITLB WRITE        ACCESS:          0 HIT:          0 MISS:          0 MSHR_MERGE:          0
cpu0->cpu0_ITLB TRANSLATION  ACCESS:          0 HIT:          0 MISS:          0 MSHR_MERGE:          0
cpu0->cpu0_ITLB PREFETCH REQUESTED:          0 ISSUED:          0 USEFUL:          0 USELESS:          0
cpu0->cpu0_ITLB AVERAGE MISS LATENCY: - cycles
cpu0->cpu0_DTLB TOTAL        ACCESS:    2740552 HIT:    2732329 MISS:       8223 MSHR_MERGE:       4834
cpu0->cpu0_DTLB LOAD         ACCESS:    2740552 HIT:    2732329 MISS:       8223 MSHR_MERGE:       4834
cpu0->cpu0_DTLB RFO          ACCESS:          0 HIT:          0 MISS:          0 MSHR_MERGE:          0
cpu0->cpu0_DTLB PREFETCH     ACCESS:          0 HIT:          0 MISS:          0 MSHR_MERGE:          0
cpu0->cpu0_DTLB WRITE        ACCESS:          0 HIT:          0 MISS:          0 MSHR_MERGE:          0
cpu0->cpu0_DTLB TRANSLATION  ACCESS:          0 HIT:          0 MISS:          0 MSHR_MERGE:          0
cpu0->cpu0_DTLB PREFETCH REQUESTED:          0 ISSUED:          0 USEFUL:          0 USELESS:          0
cpu0->cpu0_DTLB AVERAGE MISS LATENCY: 8.703 cycles
cpu0->LLC TOTAL        ACCESS:     190310 HIT:      54321 MISS:     135989 MSHR_MERGE:          0
cpu0->LLC LOAD         ACCESS:     190132 HIT:      54232 MISS:     135900 MSHR_MERGE:          0
cpu0->LLC RFO          ACCESS:         62 HIT:          0 MISS:         62 MSHR_MERGE:          0
cpu0->LLC PREFETCH     ACCESS:          0 HIT:          0 MISS:          0 MSHR_MERGE:          0
cpu0->LLC WRITE        ACCESS:         90 HIT:         89 MISS:          1 MSHR_MERGE:          0
cpu0->LLC TRANSLATION  ACCESS:         26 HIT:          0 MISS:         26 MSHR_MERGE:          0
cpu0->LLC PREFETCH REQUESTED:          0 ISSUED:          0 USEFUL:          0 USELESS:          0
cpu0->LLC AVERAGE MISS LATENCY: 155 cycles

DRAM Statistics

Channel 0 RQ ROW_BUFFER_HIT:      37500
  ROW_BUFFER_MISS:      98488
  AVG DBUS CONGESTED CYCLE: 2.978
Channel 0 WQ ROW_BUFFER_HIT:          5
  ROW_BUFFER_MISS:         21
  FULL:          0
Channel 0 REFRESHES ISSUED:       1788
