[VMEM] WARNING: physical memory size is smaller than virtual memory size.

*** ChampSim Multicore Out-of-Order Simulator ***
Warmup Instructions: 2000000
Simulation Instructions: 10000000
Number of CPUs: 1
Page size: 4096

Off-chip DRAM Size: 16 GiB Channels: 1 Width: 64-bit Data Rate: 3205 MT/s
Warmup finished CPU 0 instructions: 2000003 cycles: 512734 cumulative IPC: 3.901 (Simulation time: 00 hr 00 min 04 sec)
Warmup complete CPU 0 instructions: 2000003 cycles: 512734 cumulative IPC: 3.901 (Simulation time: 00 hr 00 min 04 sec)
Heartbeat CPU 0 instructions: 10000004 cycles: 3830420 heartbeat IPC: 2.611 cumulative IPC: 2.411 (Simulation time: 00 hr 00 min 28 sec)
Simulation finished CPU 0 instructions: 10000000 cycles: 4054483 cumulative IPC: 2.466 (Simulation time: 00 hr 00 min 33 sec)
Simulation complete CPU 0 instructions: 10000000 cycles: 4054483 cumulative IPC: 2.466 (Simulation time: 00 hr 00 min 33 sec)

ChampSim completed all CPUs

=== Simulation ===
CPU 0 runs traces/625.x264_s-12B.champsimtrace.xz

Region of Interest Statistics

CPU 0 cumulative IPC: 2.466 instructions: 10000000 cycles: 4054483
CPU 0 Branch Prediction Accuracy: 95.21% MPKI: 1.201 Average ROB Occupancy at Mispredict: 238.8
Branch type MPKI
BRANCH_DIRECT_JUMP: 0.0017
BRANCH_INDIRECT: 0.0004
BRANCH_CONDITIONAL: 1.186
BRANCH_DIRECT_CALL: 0.0007
BRANCH_INDIRECT_CALL: 0.0092
BRANCH_RETURN: 0.0029

cpu0->cpu0_STLB TOTAL        ACCESS:        931 HIT:        805 MISS:        126 MSHR_MERGE:          0
cpu0->cpu0_STLB LOAD         ACCESS:        931 HIT:        805 MISS:        126 MSHR_MERGE:          0
cpu0->cpu0_STLB RFO          ACCESS:          0 HIT:          0 MISS:          0 MSHR_MERGE:          0
cpu0->cpu0_STLB PREFETCH     ACCESS:          0 HIT:          0 MISS:          0 MSHR_MERGE:          0
cpu0->cpu0_STLB WRITE        ACCESS:          0 HIT:          0 MISS:          0 MSHR_MERGE:          0
cpu0->cpu0_STLB TRANSLATION  ACCESS:          0 HIT:          0 MISS:          0 MSHR_MERGE:          0
cpu0->cpu0_STLB PREFETCH REQUESTED:          0 ISSUED:          0 USEFUL:          0 USELESS:          0
cpu0->cpu0_STLB AVERAGE MISS LATENCY: 686.6 cycles
cpu0->cpu0_L2C TOTAL        ACCESS:       8381 HIT:       1835 MISS:       6546 MSHR_MERGE:          0
cpu0->cpu0_L2C LOAD         ACCESS:       8101 HIT:       1812 MISS:       6289 MSHR_MERGE:          0
cpu0->cpu0_L2C RFO          ACCESS:         80 HIT:          0 MISS:         80 MSHR_MERGE:          0
cpu0->cpu0_L2C PREFETCH     ACCESS:          0 HIT:          0 MISS:          0 MSHR_MERGE:          0
cpu0->cpu0_L2C WRITE        ACCESS:         30 HIT:         23 MISS:          7 MSHR_MERGE:          0
cpu0->cpu0_L2C TRANSLATION  ACCESS:        170 HIT:          0 MISS:        170 MSHR_MERGE:          0
cpu0->cpu0_L2C PREFETCH REQUESTED:          0 ISSUED:          0 USEFUL:          0 USELESS:          0
cpu0->cpu0_L2C AVERAGE MISS LATENCY: 161.3 cycles
cpu0->cpu0_L1I TOTAL        ACCESS:    1105967 HIT:    1105743 MISS:        224 MSHR_MERGE:         65
cpu0->cpu0_L1I LOAD         ACCESS:    1105967 HIT:    1105743 MISS:        224 MSHR_MERGE:         65
cpu0->cpu0_L1I RFO          ACCESS:          0 HIT:          0 MISS:          0 MSHR_MERGE:          0
cpu0->cpu0_L1I PREFETCH     ACCESS:          0 HIT:          0 MISS:          0 MSHR_MERGE:          0
cpu0->cpu0_L1I WRITE        ACCESS:          0 HIT:          0 MISS:          0 MSHR_MERGE:          0
cpu0->cpu0_L1I TRANSLATION  ACCESS:          0 HIT:          0 MISS:          0 MSHR_MERGE:          0
cpu0->cpu0_L1I PREFETCH REQUESTED:          0 ISSUED:          0 USEFUL:          0 USELESS:          0
cpu0->cpu0_L1I AVERAGE MISS LATENCY: 203.9 cycles
cpu0->cpu0_L1D TOTAL        ACCESS:    1902340 HIT:    1870728 MISS:      31612 MSHR_MERGE:      23420
cpu0->cpu0_L1D LOAD         ACCESS:    1253603 HIT:    1222418 MISS:      31185 MSHR_MERGE:      23243
cpu0->cpu0_L1D RFO          ACCESS:          0 HIT:          0 MISS:          0 MSHR_MERGE:          0
cpu0->cpu0_L1D PREFETCH     ACCESS:          0 HIT:          0 MISS:          0 MSHR_MERGE:          0
cpu0->cpu0_L1D WRITE        ACCESS:     648485 HIT:     648228 MISS:        257 MSHR_MERGE:        177
cpu0->cpu0_L1D TRANSLATION  ACCESS:        252 HIT:         82 MISS:        170 MSHR_MERGE:          0
cpu0->cpu0_L1D PREFETCH REQUESTED:          0 ISSUED:          0 USEFUL:          0 USELESS:          0
cpu0->cpu0_L1D AVERAGE MISS LATENCY: 133.8 cycles
cpu0->cpu0_ITLB TOTAL        ACCESS:     959578 HIT:     959541 MISS:         37 MSHR_MERGE:         27
cpu0->cpu0_ITLB LOAD         ACCESS:     959578 HIT:     959541 MISS:         37 MSHR_MERGE:         27
cpu0->cpu0_ITLB RFO          ACCESS:          0 HIT:          0 MISS:          0 MSHR_MERGE:          0
cpu0->cpu0_ITLB PREFETCH     ACCESS:          0 HIT:          0 MISS:          0 MSHR_MERGE:          0
cpu0->cpu0_ITLB WRITE        ACCESS:          0 HIT:          0 MISS:          0 MSHR_MERGE:          0
cpu0->cpu0_ITLB TRANSLATION  ACCESS:          0 HIT:          0 MISS:          0 MSHR_MERGE:          0
cpu0->cpu0_ITLB PREFETCH REQUESTED:          0 ISSUED:          0 USEFUL:          0 USELESS:          0
cpu0->cpu0_ITLB AVERAGE MISS LATENCY: 753.5 cycles
cpu0->cpu0_DTLB TOTAL        ACCESS:    1782369 HIT:    1780608 MISS:       1761 MSHR_MERGE:        840
cpu0->cpu0_DTLB LOAD         ACCESS:    1782369 HIT:    1780608 MISS:       1761 MSHR_MERGE:        840
cpu0->cpu0_DTLB RFO          ACCESS:          0 HIT:          0 MISS:          0 MSHR_MERGE:          0
cpu0->cpu0_DTLB PREFETCH     ACCESS:          0 HIT:          0 MISS:          0 MSHR_MERGE:          0
cpu0->cpu0_DTLB WRITE        ACCESS:          0 HIT:          0 MISS:          0 MSHR_MERGE:          0
cpu0->cpu0_DTLB TRANSLATION  ACCESS:          0 HIT:          0 MISS:          0 MSHR_MERGE:          0
cpu0->cpu0_DTLB PREFETCH REQUESTED:          0 ISSUED:          0 USEFUL:          0 USELESS:          0
cpu0->cpu0_DTLB AVERAGE MISS LATENCY: 90.94 cycles
cpu0->LLC TOTAL        ACCESS:       6539 HIT:        654 MISS:       5885 MSHR_MERGE:          0
cpu0->LLC LOAD         ACCESS:       6289 HIT:        654 MISS:       5635 MSHR_MERGE:          0
cpu0->LLC RFO          ACCESS:         80 HIT:          0 MISS:         80 MSHR_MERGE:          0
cpu0->LLC PREFETCH     ACCESS:          0 HIT:          0 MISS:          0 MSHR_MERGE:          0
cpu0->LLC WRITE        ACCESS:          0 HIT:          0 MISS:          0 MSHR_MERGE:          0
cpu0->LLC TRANSLATION  ACCESS:        170 HIT:          0 MISS:        170 MSHR_MERGE:          0
cpu0->LLC PREFETCH REQUESTED:          0 ISSUED:          0 USEFUL:          0 USELESS:          0
cpu0->LLC AVERAGE MISS LATENCY: 161.7 cycles

DRAM Statistics

Channel 0 RQ ROW_BUFFER_HIT:        356
  ROW_BUFFER_MISS:       5529
  AVG DBUS CONGESTED CYCLE: 2.45
Channel 0 WQ ROW_BUFFER_HIT:          0
  ROW_BUFFER_MISS:          0
  FULL:          0
Channel 0 REFRESHES ISSUED:        338
