[VMEM] WARNING: physical memory size is smaller than virtual memory size.

*** ChampSim Multicore Out-of-Order Simulator ***
Warmup Instructions: 2000000
Simulation Instructions: 10000000
Number of CPUs: 1
Page size: 4096

Off-chip DRAM Size: 16 GiB Channels: 1 Width: 64-bit Data Rate: 3205 MT/s
Warmup finished CPU 0 instructions: 2000000 cycles: 612559 cumulative IPC: 3.265 (Simulation time: 00 hr 00 min 05 sec)
Warmup complete CPU 0 instructions: 2000000 cycles: 612559 cumulative IPC: 3.265 (Simulation time: 00 hr 00 min 05 sec)
Heartbeat CPU 0 instructions: 10000000 cycles: 9090806 heartbeat IPC: 1.1 cumulative IPC: 0.9436 (Simulation time: 00 hr 00 min 53 sec)
Simulation finished CPU 0 instructions: 10000000 cycles: 9759509 cumulative IPC: 1.025 (Simulation time: 00 hr 01 min 01 sec)
Simulation complete CPU 0 instructions: 10000000 cycles: 9759509 cumulative IPC: 1.025 (Simulation time: 00 hr 01 min 01 sec)

ChampSim completed all CPUs

=== Simulation ===
CPU 0 runs traces/627.cam4_s-490B.champsimtrace.xz

Region of Interest Statistics

CPU 0 cumulative IPC: 1.025 instructions: 10000000 cycles: 9759509
CPU 0 Branch Prediction Accuracy: 93.94% MPKI: 5.759 Average ROB Occupancy at Mispredict: 59.34
Branch type MPKI
BRANCH_DIRECT_JUMP: 0.0063
BRANCH_INDIRECT: 0.0001
BRANCH_CONDITIONAL: 5.736
BRANCH_DIRECT_CALL: 0.0084
BRANCH_INDIRECT_CALL: 0
BRANCH_RETURN: 0.0082

cpu0->cpu0_STLB TOTAL        ACCESS:       3292 HIT:       2715 MISS:        577 MSHR_MERGE:          0
cpu0->cpu0_STLB LOAD         ACCESS:       3292 HIT:       2715 MISS:        577 MSHR_MERGE:          0
cpu0->cpu0_STLB RFO          ACCESS:          0 HIT:          0 MISS:          0 MSHR_MERGE:          0
cpu0->cpu0_STLB PREFETCH     ACCESS:          0 HIT:          0 MISS:          0 MSHR_MERGE:          0
cpu0->cpu0_STLB WRITE        ACCESS:          0 HIT:          0 MISS:          0 MSHR_MERGE:          0
cpu0->cpu0_STLB TRANSLATION  ACCESS:          0 HIT:          0 MISS:          0 MSHR_MERGE:          0
cpu0->cpu0_STLB PREFETCH REQUESTED:          0 ISSUED:          0 USEFUL:          0 USELESS:          0
cpu0->cpu0_STLB AVERAGE MISS LATENCY: 714.6 cycles
cpu0->cpu0_L2C TOTAL        ACCESS:     267296 HIT:     130957 MISS:     136339 MSHR_MERGE:          0
cpu0->cpu0_L2C LOAD         ACCESS:     133291 HIT:      52162 MISS:      81129 MSHR_MERGE:          0
cpu0->cpu0_L2C RFO          ACCESS:      54610 HIT:        247 MISS:      54363 MSHR_MERGE:          0
cpu0->cpu0_L2C PREFETCH     ACCESS:          0 HIT:          0 MISS:          0 MSHR_MERGE:          0
cpu0->cpu0_L2C WRITE        ACCESS:      78659 HIT:      78545 MISS:        114 MSHR_MERGE:          0
cpu0->cpu0_L2C TRANSLATION  ACCESS:        736 HIT:          3 MISS:        733 MSHR_MERGE:          0
cpu0->cpu0_L2C PREFETCH REQUESTED:          0 ISSUED:          0 USEFUL:          0 USELESS:          0
cpu0->cpu0_L2C AVERAGE MISS LATENCY: 116 cycles
cpu0->cpu0_L1I TOTAL        ACCESS:     708253 HIT:     707714 MISS:        539 MSHR_MERGE:        180
cpu0->cpu0_L1I LOAD         ACCESS:     708253 HIT:     707714 MISS:        539 MSHR_MERGE:        180
cpu0->cpu0_L1I RFO          ACCESS:          0 HIT:          0 MISS:          0 MSHR_MERGE:          0
cpu0->cpu0_L1I PREFETCH     ACCESS:          0 HIT:          0 MISS:          0 MSHR_MERGE:          0
cpu0->cpu0_L1I WRITE        ACCESS:          0 HIT:          0 MISS:          0 MSHR_MERGE:          0
cpu0->cpu0_L1I TRANSLATION  ACCESS:          0 HIT:          0 MISS:          0 MSHR_MERGE:          0
cpu0->cpu0_L1I PREFETCH REQUESTED:          0 ISSUED:          0 USEFUL:          0 USELESS:          0
cpu0->cpu0_L1I AVERAGE MISS LATENCY: 221.4 cycles
cpu0->cpu0_L1D TOTAL        ACCESS:    2033145 HIT:    1461502 MISS:     571643 MSHR_MERGE:     383365
cpu0->cpu0_L1D LOAD         ACCESS:    1371423 HIT:    1074653 MISS:     296770 MSHR_MERGE:     163838
cpu0->cpu0_L1D RFO          ACCESS:          0 HIT:          0 MISS:          0 MSHR_MERGE:          0
cpu0->cpu0_L1D PREFETCH     ACCESS:          0 HIT:          0 MISS:          0 MSHR_MERGE:          0
cpu0->cpu0_L1D WRITE        ACCESS:     660559 HIT:     386424 MISS:     274135 MSHR_MERGE:     219525
cpu0->cpu0_L1D TRANSLATION  ACCESS:       1163 HIT:        425 MISS:        738 MSHR_MERGE:          2
cpu0->cpu0_L1D PREFETCH REQUESTED:          0 ISSUED:          0 USEFUL:          0 USELESS:          0
cpu0->cpu0_L1D AVERAGE MISS LATENCY: 92.35 cycles
cpu0->cpu0_ITLB TOTAL        ACCESS:     644144 HIT:     644133 MISS:         11 MSHR_MERGE:          7
cpu0->cpu0_ITLB LOAD         ACCESS:     644144 HIT:     644133 MISS:         11 MSHR_MERGE:          7
cpu0->cpu0_ITLB RFO          ACCESS:          0 HIT:          0 MISS:          0 MSHR_MERGE:          0
cpu0->cpu0_ITLB PREFETCH     ACCESS:          0 HIT:          0 MISS:          0 MSHR_MERGE:          0
cpu0->cpu0_ITLB WRITE        ACCESS:          0 HIT:          0 MISS:          0 MSHR_MERGE:          0
cpu0->cpu0_ITLB TRANSLATION  ACCESS:          0 HIT:          0 MISS:          0 MSHR_MERGE:          0
cpu0->cpu0_ITLB PREFETCH REQUESTED:          0 ISSUED:          0 USEFUL:          0 USELESS:          0
cpu0->cpu0_ITLB AVERAGE MISS LATENCY: 739 cycles
cpu0->cpu0_DTLB TOTAL        ACCESS:    1978482 HIT:    1970443 MISS:       8039 MSHR_MERGE:       4751
cpu0->cpu0_DTLB LOAD         ACCESS:    1978482 HIT:    1970443 MISS:       8039 MSHR_MERGE:       4751
cpu0->cpu0_DTLB RFO          ACCESS:          0 HIT:          0 MISS:          0 MSHR_MERGE:          0
cpu0->cpu0_DTLB PREFETCH     ACCESS:          0 HIT:          0 MISS:          0 MSHR_MERGE:          0
cpu0->cpu0_DTLB WRITE        ACCESS:          0 HIT:          0 MISS:          0 MSHR_MERGE:          0
cpu0->cpu0_DTLB TRANSLATION  ACCESS:          0 HIT:          0 MISS:          0 MSHR_MERGE:          0
cpu0->cpu0_DTLB PREFETCH REQUESTED:          0 ISSUED:          0 USEFUL:          0 USELESS:          0
cpu0->cpu0_DTLB AVERAGE MISS LATENCY: 129.7 cycles
cpu0->LLC TOTAL        ACCESS:     205585 HIT:     147192 MISS:      58393 MSHR_MERGE:          0
cpu0->LLC LOAD         ACCESS:      81129 HIT:      52683 MISS:      28446 MSHR_MERGE:          0
cpu0->LLC RFO          ACCESS:      54363 HIT:      25146 MISS:      29217 MSHR_MERGE:          0
cpu0->LLC PREFETCH     ACCESS:          0 HIT:          0 MISS:          0 MSHR_MERGE:          0
cpu0->LLC WRITE        ACCESS:      69360 HIT:      69360 MISS:          0 MSHR_MERGE:          0
cpu0->LLC TRANSLATION  ACCESS:        733 HIT:          3 MISS:        730 MSHR_MERGE:          0
cpu0->LLC PREFETCH REQUESTED:          0 ISSUED:          0 USEFUL:          0 USELESS:          0
cpu0->LLC AVERAGE MISS LATENCY: 234.7 cycles

DRAM Statistics

Channel 0 RQ ROW_BUFFER_HIT:       4347
  ROW_BUFFER_MISS:      54004
  AVG DBUS CONGESTED CYCLE: 10.73
Channel 0 WQ ROW_BUFFER_HIT:       7233
  ROW_BUFFER_MISS:      22635
  FULL:          0
Channel 0 REFRESHES ISSUED:        813
