[VMEM] WARNING: physical memory size is smaller than virtual memory size.

*** ChampSim Multicore Out-of-Order Simulator ***
Warmup Instructions: 2000000
Simulation Instructions: 10000000
Number of CPUs: 1
Page size: 4096

Off-chip DRAM Size: 16 GiB Channels: 1 Width: 64-bit Data Rate: 3205 MT/s
Warmup finished CPU 0 instructions: 2000001 cycles: 647609 cumulative IPC: 3.088 (Simulation time: 00 hr 00 min 05 sec)
Warmup complete CPU 0 instructions: 2000001 cycles: 647609 cumulative IPC: 3.088 (Simulation time: 00 hr 00 min 05 sec)
Heartbeat CPU 0 instructions: 10000002 cycles: 7163691 heartbeat IPC: 1.396 cumulative IPC: 1.228 (Simulation time: 00 hr 00 min 43 sec)
Simulation finished CPU 0 instructions: 10000002 cycles: 8038232 cumulative IPC: 1.244 (Simulation time: 00 hr 00 min 52 sec)
Simulation complete CPU 0 instructions: 10000002 cycles: 8038232 cumulative IPC: 1.244 (Simulation time: 00 hr 00 min 52 sec)

ChampSim completed all CPUs

=== Simulation ===
CPU 0 runs traces/628.pop2_s-17B.champsimtrace.xz

Region of Interest Statistics

CPU 0 cumulative IPC: 1.244 instructions: 10000002 cycles: 8038232
CPU 0 Branch Prediction Accuracy: 96.75% MPKI: 3.709 Average ROB Occupancy at Mispredict: 96.83
Branch type MPKI
BRANCH_DIRECT_JUMP: 0.0512
BRANCH_INDIRECT: 0.0016
BRANCH_CONDITIONAL: 3.656
BRANCH_DIRECT_CALL: 0
BRANCH_INDIRECT_CALL: 0
BRANCH_RETURN: 0.0001

cpu0->cpu0_STLB TOTAL        ACCESS:       8694 HIT:       8202 MISS:        492 MSHR_MERGE:          0
cpu0->cpu0_STLB LOAD         ACCESS:       8694 HIT:       8202 MISS:        492 MSHR_MERGE:          0
cpu0->cpu0_STLB RFO          ACCESS:          0 HIT:          0 MISS:          0 MSHR_MERGE:          0
cpu0->cpu0_STLB PREFETCH     ACCESS:          0 HIT:          0 MISS:          0 MSHR_MERGE:          0
cpu0->cpu0_STLB WRITE        ACCESS:          0 HIT:          0 MISS:          0 MSHR_MERGE:          0
cpu0->cpu0_STLB TRANSLATION  ACCESS:          0 HIT:          0 MISS:          0 MSHR_MERGE:          0
cpu0->cpu0_STLB PREFETCH REQUESTED:          0 ISSUED:          0 USEFUL:          0 USELESS:          0
cpu0->cpu0_STLB AVERAGE MISS LATENCY: 756.6 cycles
cpu0->cpu0_L2C TOTAL        ACCESS:     300866 HIT:     209103 MISS:      91763 MSHR_MERGE:          0
cpu0->cpu0_L2C LOAD         ACCESS:     164107 HIT:      94621 MISS:      69486 MSHR_MERGE:          0
cpu0->cpu0_L2C RFO          ACCESS:      54495 HIT:      33216 MISS:      21279 MSHR_MERGE:          0
cpu0->cpu0_L2C PREFETCH     ACCESS:          0 HIT:          0 MISS:          0 MSHR_MERGE:          0
cpu0->cpu0_L2C WRITE        ACCESS:      81227 HIT:      81222 MISS:          5 MSHR_MERGE:          0
cpu0->cpu0_L2C TRANSLATION  ACCESS:       1037 HIT:         44 MISS:        993 MSHR_MERGE:          0
cpu0->cpu0_L2C PREFETCH REQUESTED:          0 ISSUED:          0 USEFUL:          0 USELESS:          0
cpu0->cpu0_L2C AVERAGE MISS LATENCY: 77.85 cycles
cpu0->cpu0_L1I TOTAL        ACCESS:     729309 HIT:     707742 MISS:      21567 MSHR_MERGE:       9770
cpu0->cpu0_L1I LOAD         ACCESS:     729309 HIT:     707742 MISS:      21567 MSHR_MERGE:       9770
cpu0->cpu0_L1I RFO          ACCESS:          0 HIT:          0 MISS:          0 MSHR_MERGE:          0
cpu0->cpu0_L1I PREFETCH     ACCESS:          0 HIT:          0 MISS:          0 MSHR_MERGE:          0
cpu0->cpu0_L1I WRITE        ACCESS:          0 HIT:          0 MISS:          0 MSHR_MERGE:          0
cpu0->cpu0_L1I TRANSLATION  ACCESS:          0 HIT:          0 MISS:          0 MSHR_MERGE:          0
cpu0->cpu0_L1I PREFETCH REQUESTED:          0 ISSUED:          0 USEFUL:          0 USELESS:          0
cpu0->cpu0_L1I AVERAGE MISS LATENCY: 21.67 cycles
cpu0->cpu0_L1D TOTAL        ACCESS:    2616783 HIT:    2147044 MISS:     469739 MSHR_MERGE:     261895
cpu0->cpu0_L1D LOAD         ACCESS:    1858502 HIT:    1570461 MISS:     288041 MSHR_MERGE:     135729
cpu0->cpu0_L1D RFO          ACCESS:          0 HIT:          0 MISS:          0 MSHR_MERGE:          0
cpu0->cpu0_L1D PREFETCH     ACCESS:          0 HIT:          0 MISS:          0 MSHR_MERGE:          0
cpu0->cpu0_L1D WRITE        ACCESS:     757137 HIT:     576504 MISS:     180633 MSHR_MERGE:     126138
cpu0->cpu0_L1D TRANSLATION  ACCESS:       1144 HIT:         79 MISS:       1065 MSHR_MERGE:         28
cpu0->cpu0_L1D PREFETCH REQUESTED:          0 ISSUED:          0 USEFUL:          0 USELESS:          0
cpu0->cpu0_L1D AVERAGE MISS LATENCY: 42.04 cycles
cpu0->cpu0_ITLB TOTAL        ACCESS:     592292 HIT:     591151 MISS:       1141 MSHR_MERGE:        648
cpu0->cpu0_ITLB LOAD         ACCESS:     592292 HIT:     591151 MISS:       1141 MSHR_MERGE:        648
cpu0->cpu0_ITLB RFO          ACCESS:          0 HIT:          0 MISS:          0 MSHR_MERGE:          0
cpu0->cpu0_ITLB PREFETCH     ACCESS:          0 HIT:          0 MISS:          0 MSHR_MERGE:          0
cpu0->cpu0_ITLB WRITE        ACCESS:          0 HIT:          0 MISS:          0 MSHR_MERGE:          0
cpu0->cpu0_ITLB TRANSLATION  ACCESS:          0 HIT:          0 MISS:          0 MSHR_MERGE:          0
cpu0->cpu0_ITLB PREFETCH REQUESTED:          0 ISSUED:          0 USEFUL:          0 USELESS:          0
cpu0->cpu0_ITLB AVERAGE MISS LATENCY: 5.006 cycles
cpu0->cpu0_DTLB TOTAL        ACCESS:    2520827 HIT:    2507403 MISS:      13424 MSHR_MERGE:       5223
cpu0->cpu0_DTLB LOAD         ACCESS:    2520827 HIT:    2507403 MISS:      13424 MSHR_MERGE:       5223
cpu0->cpu0_DTLB RFO          ACCESS:          0 HIT:          0 MISS:          0 MSHR_MERGE:          0
cpu0->cpu0_DTLB PREFETCH     ACCESS:          0 HIT:          0 MISS:          0 MSHR_MERGE:          0
cpu0->cpu0_DTLB WRITE        ACCESS:          0 HIT:          0 MISS:          0 MSHR_MERGE:          0
cpu0->cpu0_DTLB TRANSLATION  ACCESS:          0 HIT:          0 MISS:          0 MSHR_MERGE:          0
cpu0->cpu0_DTLB PREFETCH REQUESTED:          0 ISSUED:          0 USEFUL:          0 USELESS:          0
cpu0->cpu0_DTLB AVERAGE MISS LATENCY: 50.45 cycles
cpu0->LLC TOTAL        ACCESS:     126050 HIT:      95419 MISS:      30631 MSHR_MERGE:          0
cpu0->LLC LOAD         ACCESS:      69486 HIT:      41790 MISS:      27696 MSHR_MERGE:          0
cpu0->LLC RFO          ACCESS:      21279 HIT:      19102 MISS:       2177 MSHR_MERGE:          0
cpu0->LLC PREFETCH     ACCESS:          0 HIT:          0 MISS:          0 MSHR_MERGE:          0
cpu0->LLC WRITE        ACCESS:      34292 HIT:      34255 MISS:         37 MSHR_MERGE:          0
cpu0->LLC TRANSLATION  ACCESS:        993 HIT:        272 MISS:        721 MSHR_MERGE:          0
cpu0->LLC PREFETCH REQUESTED:          0 ISSUED:          0 USEFUL:          0 USELESS:          0
cpu0->LLC AVERAGE MISS LATENCY: 187.2 cycles

DRAM Statistics

Channel 0 RQ ROW_BUFFER_HIT:       1108
  ROW_BUFFER_MISS:      29486
  AVG DBUS CONGESTED CYCLE: 14.89
Channel 0 WQ ROW_BUFFER_HIT:        956
  ROW_BUFFER_MISS:       2592
  FULL:          0
Channel 0 REFRESHES ISSUED:        670
