[VMEM] WARNING: physical memory size is smaller than virtual memory size.

*** ChampSim Multicore Out-of-Order Simulator ***
Warmup Instructions: 2000000
Simulation Instructions: 10000000
Number of CPUs: 1
Page size: 4096

Off-chip DRAM Size: 16 GiB Channels: 1 Width: 64-bit Data Rate: 3205 MT/s
Warmup finished CPU 0 instructions: 2000000 cycles: 789887 cumulative IPC: 2.532 (Simulation time: 00 hr 00 min 07 sec)
Warmup complete CPU 0 instructions: 2000000 cycles: 789887 cumulative IPC: 2.532 (Simulation time: 00 hr 00 min 07 sec)
Heartbeat CPU 0 instructions: 10000002 cycles: 8316372 heartbeat IPC: 1.202 cumulative IPC: 1.063 (Simulation time: 00 hr 00 min 47 sec)
Simulation finished CPU 0 instructions: 10000004 cycles: 9317212 cumulative IPC: 1.073 (Simulation time: 00 hr 00 min 57 sec)
Simulation complete CPU 0 instructions: 10000004 cycles: 9317212 cumulative IPC: 1.073 (Simulation time: 00 hr 00 min 57 sec)

ChampSim completed all CPUs

=== Simulation ===
CPU 0 runs traces/631.deepsjeng_s-928B.champsimtrace.xz

Region of Interest Statistics

CPU 0 cumulative IPC: 1.073 instructions: 10000004 cycles: 9317212
CPU 0 Branch Prediction Accuracy: 89.31% MPKI: 16.02 Average ROB Occupancy at Mispredict: 27.51
Branch type MPKI
BRANCH_DIRECT_JUMP: 0.0279
BRANCH_INDIRECT: 0.0106
BRANCH_CONDITIONAL: 15.52
BRANCH_DIRECT_CALL: 0.024
BRANCH_INDIRECT_CALL: 0
BRANCH_RETURN: 0.4437

cpu0->cpu0_STLB TOTAL        ACCESS:       2166 HIT:        745 MISS:       1421 MSHR_MERGE:          0
cpu0->cpu0_STLB LOAD         ACCESS:       2166 HIT:        745 MISS:       1421 MSHR_MERGE:          0
cpu0->cpu0_STLB RFO          ACCESS:          0 HIT:          0 MISS:          0 MSHR_MERGE:          0
cpu0->cpu0_STLB PREFETCH     ACCESS:          0 HIT:          0 MISS:          0 MSHR_MERGE:          0
cpu0->cpu0_STLB WRITE        ACCESS:          0 HIT:          0 MISS:          0 MSHR_MERGE:          0
cpu0->cpu0_STLB TRANSLATION  ACCESS:          0 HIT:          0 MISS:          0 MSHR_MERGE:          0
cpu0->cpu0_STLB PREFETCH REQUESTED:          0 ISSUED:          0 USEFUL:          0 USELESS:          0
cpu0->cpu0_STLB AVERAGE MISS LATENCY: 1037 cycles
cpu0->cpu0_L2C TOTAL        ACCESS:      25157 HIT:      18610 MISS:       6547 MSHR_MERGE:          0
cpu0->cpu0_L2C LOAD         ACCESS:      13371 HIT:      10935 MISS:       2436 MSHR_MERGE:          0
cpu0->cpu0_L2C RFO          ACCESS:       2827 HIT:       2448 MISS:        379 MSHR_MERGE:          0
cpu0->cpu0_L2C PREFETCH     ACCESS:          0 HIT:          0 MISS:          0 MSHR_MERGE:          0
cpu0->cpu0_L2C WRITE        ACCESS:       4793 HIT:       4789 MISS:          4 MSHR_MERGE:          0
cpu0->cpu0_L2C TRANSLATION  ACCESS:       4166 HIT:        438 MISS:       3728 MSHR_MERGE:          0
cpu0->cpu0_L2C PREFETCH REQUESTED:          0 ISSUED:          0 USEFUL:          0 USELESS:          0
cpu0->cpu0_L2C AVERAGE MISS LATENCY: 175.6 cycles
cpu0->cpu0_L1I TOTAL        ACCESS:    1109766 HIT:    1099374 MISS:      10392 MSHR_MERGE:       2050
cpu0->cpu0_L1I LOAD         ACCESS:    1109766 HIT:    1099374 MISS:      10392 MSHR_MERGE:       2050
cpu0->cpu0_L1I RFO          ACCESS:          0 HIT:          0 MISS:          0 MSHR_MERGE:          0
cpu0->cpu0_L1I PREFETCH     ACCESS:          0 HIT:          0 MISS:          0 MSHR_MERGE:          0
cpu0->cpu0_L1I WRITE        ACCESS:          0 HIT:          0 MISS:          0 MSHR_MERGE:          0
cpu0->cpu0_L1I TRANSLATION  ACCESS:          0 HIT:          0 MISS:          0 MSHR_MERGE:          0
cpu0->cpu0_L1I PREFETCH REQUESTED:          0 ISSUED:          0 USEFUL:          0 USELESS:          0
cpu0->cpu0_L1I AVERAGE MISS LATENCY: 7.717 cycles
cpu0->cpu0_L1D TOTAL        ACCESS:    3063815 HIT:    3044248 MISS:      19567 MSHR_MERGE:       7544
cpu0->cpu0_L1D LOAD         ACCESS:    1851511 HIT:    1843944 MISS:       7567 MSHR_MERGE:       2537
cpu0->cpu0_L1D RFO          ACCESS:          0 HIT:          0 MISS:          0 MSHR_MERGE:          0
cpu0->cpu0_L1D PREFETCH     ACCESS:          0 HIT:          0 MISS:          0 MSHR_MERGE:          0
cpu0->cpu0_L1D WRITE        ACCESS:    1208036 HIT:    1200213 MISS:       7823 MSHR_MERGE:       4996
cpu0->cpu0_L1D TRANSLATION  ACCESS:       4268 HIT:         91 MISS:       4177 MSHR_MERGE:         11
cpu0->cpu0_L1D PREFETCH REQUESTED:          0 ISSUED:          0 USEFUL:          0 USELESS:          0
cpu0->cpu0_L1D AVERAGE MISS LATENCY: 103.7 cycles
cpu0->cpu0_ITLB TOTAL        ACCESS:     947643 HIT:     947643 MISS:          0 MSHR_MERGE:          0
cpu0->cpu0_ITLB LOAD         ACCESS:     947643 HIT:     947643 MISS:          0 MSHR_MERGE:          0
cpu0->cpu0_ITLB RFO          ACCESS:          0 HIT:          0 MISS:          0 MSHR_MERGE:          0
cpu0->cpu0_ITLB PREFETCH     ACCESS:          0 HIT:          0 MISS:          0 MSHR_MERGE:          0
cpu0->cpu0_ITLB WRITE        ACCESS:          0 HIT:          0 MISS:          0 MSHR_MERGE:          0
cpu0->cpu0_ITLB TRANSLATION  ACCESS:          0 HIT:          0 MISS:          0 MSHR_MERGE:          0
cpu0->cpu0_ITLB PREFETCH REQUESTED:          0 ISSUED:          0 USEFUL:          0 USELESS:          0
cpu0->cpu0_ITLB AVERAGE MISS LATENCY: - cycles
cpu0->cpu0_DTLB TOTAL        ACCESS:    2873988 HIT:    2869292 MISS:       4696 MSHR_MERGE:       2530
cpu0->cpu0_DTLB LOAD         ACCESS:    2873988 HIT:    2869292 MISS:       4696 MSHR_MERGE:       2530
cpu0->cpu0_DTLB RFO          ACCESS:          0 HIT:          0 MISS:          0 MSHR_MERGE:          0
cpu0->cpu0_DTLB PREFETCH     ACCESS:          0 HIT:          0 MISS:          0 MSHR_MERGE:          0
cpu0->cpu0_DTLB WRITE        ACCESS:          0 HIT:          0 MISS:          0 MSHR_MERGE:          0
cpu0->cpu0_DTLB TRANSLATION  ACCESS:          0 HIT:          0 MISS:          0 MSHR_MERGE:          0
cpu0->cpu0_DTLB PREFETCH REQUESTED:          0 ISSUED:          0 USEFUL:          0 USELESS:          0
cpu0->cpu0_DTLB AVERAGE MISS LATENCY: 685.8 cycles
cpu0->LLC TOTAL        ACCESS:       7136 HIT:        690 MISS:       6446 MSHR_MERGE:          0
cpu0->LLC LOAD         ACCESS:       2436 HIT:         42 MISS:       2394 MSHR_MERGE:          0
cpu0->LLC RFO          ACCESS:        379 HIT:         11 MISS:        368 MSHR_MERGE:          0
cpu0->LLC PREFETCH     ACCESS:          0 HIT:          0 MISS:          0 MSHR_MERGE:          0
cpu0->LLC WRITE        ACCESS:        593 HIT:        593 MISS:          0 MSHR_MERGE:          0
cpu0->LLC TRANSLATION  ACCESS:       3728 HIT:         44 MISS:       3684 MSHR_MERGE:          0
cpu0->LLC PREFETCH REQUESTED:          0 ISSUED:          0 USEFUL:          0 USELESS:          0
cpu0->LLC AVERAGE MISS LATENCY: 162.1 cycles

DRAM Statistics

Channel 0 RQ ROW_BUFFER_HIT:         17
  ROW_BUFFER_MISS:       6429
  AVG DBUS CONGESTED CYCLE: 2.961
Channel 0 WQ ROW_BUFFER_HIT:          0
  ROW_BUFFER_MISS:          0
  FULL:          0
Channel 0 REFRESHES ISSUED:        777
