[VMEM] WARNING: physical memory size is smaller than virtual memory size.

*** ChampSim Multicore Out-of-Order Simulator ***
Warmup Instructions: 2000000
Simulation Instructions: 10000000
Number of CPUs: 1
Page size: 4096

Off-chip DRAM Size: 16 GiB Channels: 1 Width: 64-bit Data Rate: 3205 MT/s
Warmup finished CPU 0 instructions: 2000001 cycles: 569335 cumulative IPC: 3.513 (Simulation time: 00 hr 00 min 05 sec)
Warmup complete CPU 0 instructions: 2000001 cycles: 569335 cumulative IPC: 3.513 (Simulation time: 00 hr 00 min 05 sec)
Heartbeat CPU 0 instructions: 10000000 cycles: 8521416 heartbeat IPC: 1.174 cumulative IPC: 1.006 (Simulation time: 00 hr 00 min 46 sec)
Simulation finished CPU 0 instructions: 10000001 cycles: 10868896 cumulative IPC: 0.9201 (Simulation time: 00 hr 01 min 00 sec)
Simulation complete CPU 0 instructions: 10000001 cycles: 10868896 cumulative IPC: 0.9201 (Simulation time: 00 hr 01 min 00 sec)

ChampSim completed all CPUs

=== Simulation ===
CPU 0 runs traces/641.leela_s-149B.champsimtrace.xz

Region of Interest Statistics

CPU 0 cumulative IPC: 0.9201 instructions: 10000001 cycles: 10868896
CPU 0 Branch Prediction Accuracy: 86.7% MPKI: 21.94 Average ROB Occupancy at Mispredict: 19.62
Branch type MPKI
BRANCH_DIRECT_JUMP: 0.1117
BRANCH_INDIRECT: 0.0064
BRANCH_CONDITIONAL: 21.77
BRANCH_DIRECT_CALL: 0.0127
BRANCH_INDIRECT_CALL: 0.0034
BRANCH_RETURN: 0.0393

cpu0->cpu0_STLB TOTAL        ACCESS:       6540 HIT:       6253 MISS:        287 MSHR_MERGE:          0
cpu0->cpu0_STLB LOAD         ACCESS:       6540 HIT:       6253 MISS:        287 MSHR_MERGE:          0
cpu0->cpu0_STLB RFO          ACCESS:          0 HIT:          0 MISS:          0 MSHR_MERGE:          0
cpu0->cpu0_STLB PREFETCH     ACCESS:          0 HIT:          0 MISS:          0 MSHR_MERGE:          0
cpu0->cpu0_STLB WRITE        ACCESS:          0 HIT:          0 MISS:          0 MSHR_MERGE:          0
cpu0->cpu0_STLB TRANSLATION  ACCESS:          0 HIT:          0 MISS:          0 MSHR_MERGE:          0
cpu0->cpu0_STLB PREFETCH REQUESTED:          0 ISSUED:          0 USEFUL:          0 USELESS:          0
cpu0->cpu0_STLB AVERAGE MISS LATENCY: 724.5 cycles
cpu0->cpu0_L2C TOTAL        ACCESS:      79353 HIT:      66628 MISS:      12725 MSHR_MERGE:          0
cpu0->cpu0_L2C LOAD         ACCESS:      41717 HIT:      36166 MISS:       5551 MSHR_MERGE:          0
cpu0->cpu0_L2C RFO          ACCESS:      14445 HIT:       7722 MISS:       6723 MSHR_MERGE:          0
cpu0->cpu0_L2C PREFETCH     ACCESS:          0 HIT:          0 MISS:          0 MSHR_MERGE:          0
cpu0->cpu0_L2C WRITE        ACCESS:      22742 HIT:      22738 MISS:          4 MSHR_MERGE:          0
cpu0->cpu0_L2C TRANSLATION  ACCESS:        449 HIT:          2 MISS:        447 MSHR_MERGE:          0
cpu0->cpu0_L2C PREFETCH REQUESTED:          0 ISSUED:          0 USEFUL:          0 USELESS:          0
cpu0->cpu0_L2C AVERAGE MISS LATENCY: 167.7 cycles
cpu0->cpu0_L1I TOTAL        ACCESS:     919237 HIT:     915146 MISS:       4091 MSHR_MERGE:       1347
cpu0->cpu0_L1I LOAD         ACCESS:     919237 HIT:     915146 MISS:       4091 MSHR_MERGE:       1347
cpu0->cpu0_L1I RFO          ACCESS:          0 HIT:          0 MISS:          0 MSHR_MERGE:          0
cpu0->cpu0_L1I PREFETCH     ACCESS:          0 HIT:          0 MISS:          0 MSHR_MERGE:          0
cpu0->cpu0_L1I WRITE        ACCESS:          0 HIT:          0 MISS:          0 MSHR_MERGE:          0
cpu0->cpu0_L1I TRANSLATION  ACCESS:          0 HIT:          0 MISS:          0 MSHR_MERGE:          0
cpu0->cpu0_L1I PREFETCH REQUESTED:          0 ISSUED:          0 USEFUL:          0 USELESS:          0
cpu0->cpu0_L1I AVERAGE MISS LATENCY: 27.95 cycles
cpu0->cpu0_L1D TOTAL        ACCESS:    2918039 HIT:    2803794 MISS:     114245 MSHR_MERGE:      60377
cpu0->cpu0_L1D LOAD         ACCESS:    1768338 HIT:    1720923 MISS:      47415 MSHR_MERGE:       8442
cpu0->cpu0_L1D RFO          ACCESS:          0 HIT:          0 MISS:          0 MSHR_MERGE:          0
cpu0->cpu0_L1D PREFETCH     ACCESS:          0 HIT:          0 MISS:          0 MSHR_MERGE:          0
cpu0->cpu0_L1D WRITE        ACCESS:    1149127 HIT:    1082746 MISS:      66381 MSHR_MERGE:      51935
cpu0->cpu0_L1D TRANSLATION  ACCESS:        574 HIT:        125 MISS:        449 MSHR_MERGE:          0
cpu0->cpu0_L1D PREFETCH REQUESTED:          0 ISSUED:          0 USEFUL:          0 USELESS:          0
cpu0->cpu0_L1D AVERAGE MISS LATENCY: 46.8 cycles
cpu0->cpu0_ITLB TOTAL        ACCESS:     817789 HIT:     817704 MISS:         85 MSHR_MERGE:         40
cpu0->cpu0_ITLB LOAD         ACCESS:     817789 HIT:     817704 MISS:         85 MSHR_MERGE:         40
cpu0->cpu0_ITLB RFO          ACCESS:          0 HIT:          0 MISS:          0 MSHR_MERGE:          0
cpu0->cpu0_ITLB PREFETCH     ACCESS:          0 HIT:          0 MISS:          0 MSHR_MERGE:          0
cpu0->cpu0_ITLB WRITE        ACCESS:          0 HIT:          0 MISS:          0 MSHR_MERGE:          0
cpu0->cpu0_ITLB TRANSLATION  ACCESS:          0 HIT:          0 MISS:          0 MSHR_MERGE:          0
cpu0->cpu0_ITLB PREFETCH REQUESTED:          0 ISSUED:          0 USEFUL:          0 USELESS:          0
cpu0->cpu0_ITLB AVERAGE MISS LATENCY: 438.3 cycles
cpu0->cpu0_DTLB TOTAL        ACCESS:    2773137 HIT:    2763443 MISS:       9694 MSHR_MERGE:       3199
cpu0->cpu0_DTLB LOAD         ACCESS:    2773137 HIT:    2763443 MISS:       9694 MSHR_MERGE:       3199
cpu0->cpu0_DTLB RFO          ACCESS:          0 HIT:          0 MISS:          0 MSHR_MERGE:          0
cpu0->cpu0_DTLB PREFETCH     ACCESS:          0 HIT:          0 MISS:          0 MSHR_MERGE:          0
cpu0->cpu0_DTLB WRITE        ACCESS:          0 HIT:          0 MISS:          0 MSHR_MERGE:          0
cpu0->cpu0_DTLB TRANSLATION  ACCESS:          0 HIT:          0 MISS:          0 MSHR_MERGE:          0
cpu0->cpu0_DTLB PREFETCH REQUESTED:          0 ISSUED:          0 USEFUL:          0 USELESS:          0
cpu0->cpu0_DTLB AVERAGE MISS LATENCY: 34.07 cycles
cpu0->LLC TOTAL        ACCESS:      15321 HIT:       4351 MISS:      10970 MSHR_MERGE:          0
cpu0->LLC LOAD         ACCESS:       5551 HIT:       1715 MISS:       3836 MSHR_MERGE:          0
cpu0->LLC RFO          ACCESS:       6723 HIT:         34 MISS:       6689 MSHR_MERGE:          0
cpu0->LLC PREFETCH     ACCESS:          0 HIT:          0 MISS:          0 MSHR_MERGE:          0
cpu0->LLC WRITE        ACCESS:       2600 HIT:       2600 MISS:          0 MSHR_MERGE:          0
cpu0->LLC TRANSLATION  ACCESS:        447 HIT:          2 MISS:        445 MSHR_MERGE:          0
cpu0->LLC PREFETCH REQUESTED:          0 ISSUED:          0 USEFUL:          0 USELESS:          0
cpu0->LLC AVERAGE MISS LATENCY: 176.2 cycles

DRAM Statistics

Channel 0 RQ ROW_BUFFER_HIT:       1547
  ROW_BUFFER_MISS:       9423
  AVG DBUS CONGESTED CYCLE: 2.793
Channel 0 WQ ROW_BUFFER_HIT:          0
  ROW_BUFFER_MISS:          0
  FULL:          0
Channel 0 REFRESHES ISSUED:        906
