[VMEM] WARNING: physical memory size is smaller than virtual memory size.

*** ChampSim Multicore Out-of-Order Simulator ***
Warmup Instructions: 2000000
Simulation Instructions: 10000000
Number of CPUs: 1
Page size: 4096

Off-chip DRAM Size: 16 GiB Channels: 1 Width: 64-bit Data Rate: 3205 MT/s
Warmup finished CPU 0 instructions: 2000004 cycles: 508385 cumulative IPC: 3.934 (Simulation time: 00 hr 00 min 05 sec)
Warmup complete CPU 0 instructions: 2000004 cycles: 508385 cumulative IPC: 3.934 (Simulation time: 00 hr 00 min 05 sec)
Heartbeat CPU 0 instructions: 10000003 cycles: 5186328 heartbeat IPC: 1.928 cumulative IPC: 1.71 (Simulation time: 00 hr 00 min 34 sec)
Simulation finished CPU 0 instructions: 10000002 cycles: 5949638 cumulative IPC: 1.681 (Simulation time: 00 hr 00 min 41 sec)
Simulation complete CPU 0 instructions: 10000002 cycles: 5949638 cumulative IPC: 1.681 (Simulation time: 00 hr 00 min 41 sec)

ChampSim completed all CPUs

=== Simulation ===
CPU 0 runs traces/648.exchange2_s-387B.champsimtrace.xz

Region of Interest Statistics

CPU 0 cumulative IPC: 1.681 instructions: 10000002 cycles: 5949638
CPU 0 Branch Prediction Accuracy: 91.93% MPKI: 11.54 Average ROB Occupancy at Mispredict: 37.3
Branch type MPKI
BRANCH_DIRECT_JUMP: 0.1638
BRANCH_INDIRECT: 0
BRANCH_CONDITIONAL: 11.36
BRANCH_DIRECT_CALL: 0.008
BRANCH_INDIRECT_CALL: 0
BRANCH_RETURN: 0.008

cpu0->cpu0_STLB TOTAL        ACCESS:         35 HIT:          0 MISS:         35 MSHR_MERGE:          0
cpu0->cpu0_STLB LOAD         ACCESS:         35 HIT:          0 MISS:         35 MSHR_MERGE:          0
cpu0->cpu0_STLB RFO          ACCESS:          0 HIT:          0 MISS:          0 MSHR_MERGE:          0
cpu0->cpu0_STLB PREFETCH     ACCESS:          0 HIT:          0 MISS:          0 MSHR_MERGE:          0
cpu0->cpu0_STLB WRITE        ACCESS:          0 HIT:          0 MISS:          0 MSHR_MERGE:          0
cpu0->cpu0_STLB TRANSLATION  ACCESS:          0 HIT:          0 MISS:          0 MSHR_MERGE:          0
cpu0->cpu0_STLB PREFETCH REQUESTED:          0 ISSUED:          0 USEFUL:          0 USELESS:          0
cpu0->cpu0_STLB AVERAGE MISS LATENCY: 741.7 cycles
cpu0->cpu0_L2C TOTAL        ACCESS:       1234 HIT:        240 MISS:        994 MSHR_MERGE:          0
cpu0->cpu0_L2C LOAD         ACCESS:       1084 HIT:        236 MISS:        848 MSHR_MERGE:          0
cpu0->cpu0_L2C RFO          ACCESS:         93 HIT:          0 MISS:         93 MSHR_MERGE:          0
cpu0->cpu0_L2C PREFETCH     ACCESS:          0 HIT:          0 MISS:          0 MSHR_MERGE:          0
cpu0->cpu0_L2C WRITE        ACCESS:          4 HIT:          4 MISS:          0 MSHR_MERGE:          0
cpu0->cpu0_L2C TRANSLATION  ACCESS:         53 HIT:          0 MISS:         53 MSHR_MERGE:          0
cpu0->cpu0_L2C PREFETCH REQUESTED:          0 ISSUED:          0 USEFUL:          0 USELESS:          0
cpu0->cpu0_L2C AVERAGE MISS LATENCY: 185.2 cycles
cpu0->cpu0_L1I TOTAL        ACCESS:     947832 HIT:     946334 MISS:       1498 MSHR_MERGE:        449
cpu0->cpu0_L1I LOAD         ACCESS:     947832 HIT:     946334 MISS:       1498 MSHR_MERGE:        449
cpu0->cpu0_L1I RFO          ACCESS:          0 HIT:          0 MISS:          0 MSHR_MERGE:          0
cpu0->cpu0_L1I PREFETCH     ACCESS:          0 HIT:          0 MISS:          0 MSHR_MERGE:          0
cpu0->cpu0_L1I WRITE        ACCESS:          0 HIT:          0 MISS:          0 MSHR_MERGE:          0
cpu0->cpu0_L1I TRANSLATION  ACCESS:          0 HIT:          0 MISS:          0 MSHR_MERGE:          0
cpu0->cpu0_L1I PREFETCH REQUESTED:          0 ISSUED:          0 USEFUL:          0 USELESS:          0
cpu0->cpu0_L1I AVERAGE MISS LATENCY: 149.2 cycles
cpu0->cpu0_L1D TOTAL        ACCESS:    3184739 HIT:    3183870 MISS:        869 MSHR_MERGE:        688
cpu0->cpu0_L1D LOAD         ACCESS:    1573637 HIT:    1573551 MISS:         86 MSHR_MERGE:         51
cpu0->cpu0_L1D RFO          ACCESS:          0 HIT:          0 MISS:          0 MSHR_MERGE:          0
cpu0->cpu0_L1D PREFETCH     ACCESS:          0 HIT:          0 MISS:          0 MSHR_MERGE:          0
cpu0->cpu0_L1D WRITE        ACCESS:    1611031 HIT:    1610301 MISS:        730 MSHR_MERGE:        637
cpu0->cpu0_L1D TRANSLATION  ACCESS:         71 HIT:         18 MISS:         53 MSHR_MERGE:          0
cpu0->cpu0_L1D PREFETCH REQUESTED:          0 ISSUED:          0 USEFUL:          0 USELESS:          0
cpu0->cpu0_L1D AVERAGE MISS LATENCY: 206.5 cycles
cpu0->cpu0_ITLB TOTAL        ACCESS:     748328 HIT:     748272 MISS:         56 MSHR_MERGE:         33
cpu0->cpu0_ITLB LOAD         ACCESS:     748328 HIT:     748272 MISS:         56 MSHR_MERGE:         33
cpu0->cpu0_ITLB RFO          ACCESS:          0 HIT:          0 MISS:          0 MSHR_MERGE:          0
cpu0->cpu0_ITLB PREFETCH     ACCESS:          0 HIT:          0 MISS:          0 MSHR_MERGE:          0
cpu0->cpu0_ITLB WRITE        ACCESS:          0 HIT:          0 MISS:          0 MSHR_MERGE:          0
cpu0->cpu0_ITLB TRANSLATION  ACCESS:          0 HIT:          0 MISS:          0 MSHR_MERGE:          0
cpu0->cpu0_ITLB PREFETCH REQUESTED:          0 ISSUED:          0 USEFUL:          0 USELESS:          0
cpu0->cpu0_ITLB AVERAGE MISS LATENCY: 751.9 cycles
cpu0->cpu0_DTLB TOTAL        ACCESS:    2865296 HIT:    2865253 MISS:         43 MSHR_MERGE:         31
cpu0->cpu0_DTLB LOAD         ACCESS:    2865296 HIT:    2865253 MISS:         43 MSHR_MERGE:         31
cpu0->cpu0_DTLB RFO          ACCESS:          0 HIT:          0 MISS:          0 MSHR_MERGE:          0
cpu0->cpu0_DTLB PREFETCH     ACCESS:          0 HIT:          0 MISS:          0 MSHR_MERGE:          0
cpu0->cpu0_DTLB WRITE        ACCESS:          0 HIT:          0 MISS:          0 MSHR_MERGE:          0
cpu0->cpu0_DTLB TRANSLATION  ACCESS:          0 HIT:          0 MISS:          0 MSHR_MERGE:          0
cpu0->cpu0_DTLB PREFETCH REQUESTED:          0 ISSUED:          0 USEFUL:          0 USELESS:          0
cpu0->cpu0_DTLB AVERAGE MISS LATENCY: 739.7 cycles
cpu0->LLC TOTAL        ACCESS:        994 HIT:          0 MISS:        994 MSHR_MERGE:          0
cpu0->LLC LOAD         ACCESS:        848 HIT:          0 MISS:        848 MSHR_MERGE:          0
cpu0->LLC RFO          ACCESS:         93 HIT:          0 MISS:         93 MSHR_MERGE:          0
cpu0->LLC PREFETCH     ACCESS:          0 HIT:          0 MISS:          0 MSHR_MERGE:          0
cpu0->LLC WRITE        ACCESS:          0 HIT:          0 MISS:          0 MSHR_MERGE:          0
cpu0->LLC TRANSLATION  ACCESS:         53 HIT:          0 MISS:         53 MSHR_MERGE:          0
cpu0->LLC PREFETCH REQUESTED:          0 ISSUED:          0 USEFUL:          0 USELESS:          0
cpu0->LLC AVERAGE MISS LATENCY: 169.2 cycles

DRAM Statistics

Channel 0 RQ ROW_BUFFER_HIT:         59
  ROW_BUFFER_MISS:        935
  AVG DBUS CONGESTED CYCLE: 2.965
Channel 0 WQ ROW_BUFFER_HIT:          0
  ROW_BUFFER_MISS:          0
  FULL:          0
Channel 0 REFRESHES ISSUED:        496
