[VMEM] WARNING: physical memory size is smaller than virtual memory size.

*** ChampSim Multicore Out-of-Order Simulator ***
Warmup Instructions: 2000000
Simulation Instructions: 10000000
Number of CPUs: 1
Page size: 4096

Off-chip DRAM Size: 16 GiB Channels: 1 Width: 64-bit Data Rate: 3205 MT/s
Warmup finished CPU 0 instructions: 2000004 cycles: 606056 cumulative IPC: 3.3 (Simulation time: 00 hr 00 min 05 sec)
Warmup complete CPU 0 instructions: 2000004 cycles: 606056 cumulative IPC: 3.3 (Simulation time: 00 hr 00 min 05 sec)
Heartbeat CPU 0 instructions: 10000003 cycles: 20010958 heartbeat IPC: 0.4997 cumulative IPC: 0.4123 (Simulation time: 00 hr 02 min 07 sec)
Simulation finished CPU 0 instructions: 10000000 cycles: 24500875 cumulative IPC: 0.4081 (Simulation time: 00 hr 02 min 39 sec)
Simulation complete CPU 0 instructions: 10000000 cycles: 24500875 cumulative IPC: 0.4081 (Simulation time: 00 hr 02 min 39 sec)

ChampSim completed all CPUs

=== Simulation ===
CPU 0 runs traces/649.fotonik3d_s-1176B.champsimtrace.xz

Region of Interest Statistics

CPU 0 cumulative IPC: 0.4081 instructions: 10000000 cycles: 24500875
CPU 0 Branch Prediction Accuracy: 99.96% MPKI: 0.0066 Average ROB Occupancy at Mispredict: 247.2
Branch type MPKI
BRANCH_DIRECT_JUMP: 0
BRANCH_INDIRECT: 0
BRANCH_CONDITIONAL: 0.0066
BRANCH_DIRECT_CALL: 0
BRANCH_INDIRECT_CALL: 0
BRANCH_RETURN: 0

cpu0->cpu0_STLB TOTAL        ACCESS:       2314 HIT:        938 MISS:       1376 MSHR_MERGE:          0
cpu0->cpu0_STLB LOAD         ACCESS:       2314 HIT:        938 MISS:       1376 MSHR_MERGE:          0
cpu0->cpu0_STLB RFO          ACCESS:          0 HIT:          0 MISS:          0 MSHR_MERGE:          0
cpu0->cpu0_STLB PREFETCH     ACCESS:          0 HIT:          0 MISS:          0 MSHR_MERGE:          0
cpu0->cpu0_STLB WRITE        ACCESS:          0 HIT:          0 MISS:          0 MSHR_MERGE:          0
cpu0->cpu0_STLB TRANSLATION  ACCESS:          0 HIT:          0 MISS:          0 MSHR_MERGE:          0
cpu0->cpu0_STLB PREFETCH REQUESTED:          0 ISSUED:          0 USEFUL:          0 USELESS:          0
cpu0->cpu0_STLB AVERAGE MISS LATENCY: 668 cycles
cpu0->cpu0_L2C TOTAL        ACCESS:     221786 HIT:     124382 MISS:      97404 MSHR_MERGE:          0
cpu0->cpu0_L2C LOAD         ACCESS:     132186 HIT:      36352 MISS:      95834 MSHR_MERGE:          0
cpu0->cpu0_L2C RFO          ACCESS:        154 HIT:        144 MISS:         10 MSHR_MERGE:          0
cpu0->cpu0_L2C PREFETCH     ACCESS:          0 HIT:          0 MISS:          0 MSHR_MERGE:          0
cpu0->cpu0_L2C WRITE        ACCESS:      87847 HIT:      87847 MISS:          0 MSHR_MERGE:          0
cpu0->cpu0_L2C TRANSLATION  ACCESS:       1599 HIT:         39 MISS:       1560 MSHR_MERGE:          0
cpu0->cpu0_L2C PREFETCH REQUESTED:          0 ISSUED:          0 USEFUL:          0 USELESS:          0
cpu0->cpu0_L2C AVERAGE MISS LATENCY: 211.9 cycles
cpu0->cpu0_L1I TOTAL        ACCESS:    1775591 HIT:    1775591 MISS:          0 MSHR_MERGE:          0
cpu0->cpu0_L1I LOAD         ACCESS:    1775591 HIT:    1775591 MISS:          0 MSHR_MERGE:          0
cpu0->cpu0_L1I RFO          ACCESS:          0 HIT:          0 MISS:          0 MSHR_MERGE:          0
cpu0->cpu0_L1I PREFETCH     ACCESS:          0 HIT:          0 MISS:          0 MSHR_MERGE:          0
cpu0->cpu0_L1I WRITE        ACCESS:          0 HIT:          0 MISS:          0 MSHR_MERGE:          0
cpu0->cpu0_L1I TRANSLATION  ACCESS:          0 HIT:          0 MISS:          0 MSHR_MERGE:          0
cpu0->cpu0_L1I PREFETCH REQUESTED:          0 ISSUED:          0 USEFUL:          0 USELESS:          0
cpu0->cpu0_L1I AVERAGE MISS LATENCY: - cycles
cpu0->cpu0_L1D TOTAL        ACCESS:    3081272 HIT:    2571605 MISS:     509667 MSHR_MERGE:     375728
cpu0->cpu0_L1D LOAD         ACCESS:    2376456 HIT:    1868830 MISS:     507626 MSHR_MERGE:     375440
cpu0->cpu0_L1D RFO          ACCESS:          0 HIT:          0 MISS:          0 MSHR_MERGE:          0
cpu0->cpu0_L1D PREFETCH     ACCESS:          0 HIT:          0 MISS:          0 MSHR_MERGE:          0
cpu0->cpu0_L1D WRITE        ACCESS:     702056 HIT:     701614 MISS:        442 MSHR_MERGE:        288
cpu0->cpu0_L1D TRANSLATION  ACCESS:       2760 HIT:       1161 MISS:       1599 MSHR_MERGE:          0
cpu0->cpu0_L1D PREFETCH REQUESTED:          0 ISSUED:          0 USEFUL:          0 USELESS:          0
cpu0->cpu0_L1D AVERAGE MISS LATENCY: 162.9 cycles
cpu0->cpu0_ITLB TOTAL        ACCESS:    1425131 HIT:    1425131 MISS:          0 MSHR_MERGE:          0
cpu0->cpu0_ITLB LOAD         ACCESS:    1425131 HIT:    1425131 MISS:          0 MSHR_MERGE:          0
cpu0->cpu0_ITLB RFO          ACCESS:          0 HIT:          0 MISS:          0 MSHR_MERGE:          0
cpu0->cpu0_ITLB PREFETCH     ACCESS:          0 HIT:          0 MISS:          0 MSHR_MERGE:          0
cpu0->cpu0_ITLB WRITE        ACCESS:          0 HIT:          0 MISS:          0 MSHR_MERGE:          0
cpu0->cpu0_ITLB TRANSLATION  ACCESS:          0 HIT:          0 MISS:          0 MSHR_MERGE:          0
cpu0->cpu0_ITLB PREFETCH REQUESTED:          0 ISSUED:          0 USEFUL:          0 USELESS:          0
cpu0->cpu0_ITLB AVERAGE MISS LATENCY: - cycles
cpu0->cpu0_DTLB TOTAL        ACCESS:    2833969 HIT:    2826065 MISS:       7904 MSHR_MERGE:       5590
cpu0->cpu0_DTLB LOAD         ACCESS:    2833969 HIT:    2826065 MISS:       7904 MSHR_MERGE:       5590
cpu0->cpu0_DTLB RFO          ACCESS:          0 HIT:          0 MISS:          0 MSHR_MERGE:          0
cpu0->cpu0_DTLB PREFETCH     ACCESS:          0 HIT:          0 MISS:          0 MSHR_MERGE:          0
cpu0->cpu0_DTLB WRITE        ACCESS:          0 HIT:          0 MISS:          0 MSHR_MERGE:          0
cpu0->cpu0_DTLB TRANSLATION  ACCESS:          0 HIT:          0 MISS:          0 MSHR_MERGE:          0
cpu0->cpu0_DTLB PREFETCH REQUESTED:          0 ISSUED:          0 USEFUL:          0 USELESS:          0
cpu0->cpu0_DTLB AVERAGE MISS LATENCY: 402.8 cycles
cpu0->LLC TOTAL        ACCESS:     185116 HIT:      94323 MISS:      90793 MSHR_MERGE:          0
cpu0->LLC LOAD         ACCESS:      95834 HIT:       6605 MISS:      89229 MSHR_MERGE:          0
cpu0->LLC RFO          ACCESS:         10 HIT:         10 MISS:          0 MSHR_MERGE:          0
cpu0->LLC PREFETCH     ACCESS:          0 HIT:          0 MISS:          0 MSHR_MERGE:          0
cpu0->LLC WRITE        ACCESS:      87712 HIT:      87708 MISS:          4 MSHR_MERGE:          0
cpu0->LLC TRANSLATION  ACCESS:       1560 HIT:          0 MISS:       1560 MSHR_MERGE:          0
cpu0->LLC PREFETCH REQUESTED:          0 ISSUED:          0 USEFUL:          0 USELESS:          0
cpu0->LLC AVERAGE MISS LATENCY: 210.3 cycles

DRAM Statistics

Channel 0 RQ ROW_BUFFER_HIT:       3504
  ROW_BUFFER_MISS:      87285
  AVG DBUS CONGESTED CYCLE: 10.91
Channel 0 WQ ROW_BUFFER_HIT:      29917
  ROW_BUFFER_MISS:      44408
  FULL:          0
Channel 0 REFRESHES ISSUED:       2042
