[VMEM] WARNING: physical memory size is smaller than virtual memory size.

*** ChampSim Multicore Out-of-Order Simulator ***
Warmup Instructions: 2000000
Simulation Instructions: 10000000
Number of CPUs: 1
Page size: 4096

Off-chip DRAM Size: 16 GiB Channels: 1 Width: 64-bit Data Rate: 3205 MT/s
Warmup finished CPU 0 instructions: 2000000 cycles: 579025 cumulative IPC: 3.454 (Simulation time: 00 hr 00 min 06 sec)
Warmup complete CPU 0 instructions: 2000000 cycles: 579025 cumulative IPC: 3.454 (Simulation time: 00 hr 00 min 06 sec)
Heartbeat CPU 0 instructions: 10000002 cycles: 4095154 heartbeat IPC: 2.442 cumulative IPC: 2.275 (Simulation time: 00 hr 00 min 33 sec)
Simulation finished CPU 0 instructions: 10000000 cycles: 4369169 cumulative IPC: 2.289 (Simulation time: 00 hr 00 min 40 sec)
Simulation complete CPU 0 instructions: 10000000 cycles: 4369169 cumulative IPC: 2.289 (Simulation time: 00 hr 00 min 40 sec)

ChampSim completed all CPUs

=== Simulation ===
CPU 0 runs traces/600.perlbench_s-1273B.champsimtrace.xz

Region of Interest Statistics

CPU 0 cumulative IPC: 2.289 instructions: 10000000 cycles: 4369169
CPU 0 Branch Prediction Accuracy: 98.7% MPKI: 1.748 Average ROB Occupancy at Mispredict: 121.2
Branch type MPKI
BRANCH_DIRECT_JUMP: 0.0185
BRANCH_INDIRECT: 0.0036
BRANCH_CONDITIONAL: 1.721
BRANCH_DIRECT_CALL: 0.0017
BRANCH_INDIRECT_CALL: 0.0013
BRANCH_RETURN: 0.0018

cpu0->cpu0_STLB TOTAL        ACCESS:       1695 HIT:       1604 MISS:         91 MSHR_MERGE:          0
cpu0->cpu0_STLB LOAD         ACCESS:       1695 HIT:       1604 MISS:         91 MSHR_MERGE:          0
cpu0->cpu0_STLB RFO          ACCESS:          0 HIT:          0 MISS:          0 MSHR_MERGE:          0
cpu0->cpu0_STLB PREFETCH     ACCESS:          0 HIT:          0 MISS:          0 MSHR_MERGE:          0
cpu0->cpu0_STLB WRITE        ACCESS:          0 HIT:          0 MISS:          0 MSHR_MERGE:          0
cpu0->cpu0_STLB TRANSLATION  ACCESS:          0 HIT:          0 MISS:          0 MSHR_MERGE:          0
cpu0->cpu0_STLB PREFETCH REQUESTED:          0 ISSUED:          0 USEFUL:          0 USELESS:          0
cpu0->cpu0_STLB AVERAGE MISS LATENCY: 784.2 cycles
cpu0->cpu0_L2C TOTAL        ACCESS:       1107 HIT:        303 MISS:        804 MSHR_MERGE:          0
cpu0->cpu0_L2C LOAD         ACCESS:        878 HIT:        259 MISS:        619 MSHR_MERGE:          0
cpu0->cpu0_L2C RFO          ACCESS:         23 HIT:          3 MISS:         20 MSHR_MERGE:          0
cpu0->cpu0_L2C PREFETCH     ACCESS:          0 HIT:          0 MISS:          0 MSHR_MERGE:          0
cpu0->cpu0_L2C WRITE        ACCESS:         39 HIT:         39 MISS:          0 MSHR_MERGE:          0
cpu0->cpu0_L2C TRANSLATION  ACCESS:        167 HIT:          2 MISS:        165 MSHR_MERGE:          0
cpu0->cpu0_L2C PREFETCH REQUESTED:          0 ISSUED:          0 USEFUL:          0 USELESS:          0
cpu0->cpu0_L2C AVERAGE MISS LATENCY: 188.7 cycles
cpu0->cpu0_L1I TOTAL        ACCESS:     984248 HIT:     983825 MISS:        423 MSHR_MERGE:         59
cpu0->cpu0_L1I LOAD         ACCESS:     984248 HIT:     983825 MISS:        423 MSHR_MERGE:         59
cpu0->cpu0_L1I RFO          ACCESS:          0 HIT:          0 MISS:          0 MSHR_MERGE:          0
cpu0->cpu0_L1I PREFETCH     ACCESS:          0 HIT:          0 MISS:          0 MSHR_MERGE:          0
cpu0->cpu0_L1I WRITE        ACCESS:          0 HIT:          0 MISS:          0 MSHR_MERGE:          0
cpu0->cpu0_L1I TRANSLATION  ACCESS:          0 HIT:          0 MISS:          0 MSHR_MERGE:          0
cpu0->cpu0_L1I PREFETCH REQUESTED:          0 ISSUED:          0 USEFUL:          0 USELESS:          0
cpu0->cpu0_L1I AVERAGE MISS LATENCY: 66.33 cycles
cpu0->cpu0_L1D TOTAL        ACCESS:    3154652 HIT:    3153760 MISS:        892 MSHR_MERGE:        188
cpu0->cpu0_L1D LOAD         ACCESS:    1195835 HIT:    1195186 MISS:        649 MSHR_MERGE:        135
cpu0->cpu0_L1D RFO          ACCESS:          0 HIT:          0 MISS:          0 MSHR_MERGE:          0
cpu0->cpu0_L1D PREFETCH     ACCESS:          0 HIT:          0 MISS:          0 MSHR_MERGE:          0
cpu0->cpu0_L1D WRITE        ACCESS:    1958631 HIT:    1958555 MISS:         76 MSHR_MERGE:         53
cpu0->cpu0_L1D TRANSLATION  ACCESS:        186 HIT:         19 MISS:        167 MSHR_MERGE:          0
cpu0->cpu0_L1D PREFETCH REQUESTED:          0 ISSUED:          0 USEFUL:          0 USELESS:          0
cpu0->cpu0_L1D AVERAGE MISS LATENCY: 194.1 cycles
cpu0->cpu0_ITLB TOTAL        ACCESS:     843030 HIT:     842966 MISS:         64 MSHR_MERGE:         39
cpu0->cpu0_ITLB LOAD         ACCESS:     843030 HIT:     842966 MISS:         64 MSHR_MERGE:         39
cpu0->cpu0_ITLB RFO          ACCESS:          0 HIT:          0 MISS:          0 MSHR_MERGE:          0
cpu0->cpu0_ITLB PREFETCH     ACCESS:          0 HIT:          0 MISS:          0 MSHR_MERGE:          0
cpu0->cpu0_ITLB WRITE        ACCESS:          0 HIT:          0 MISS:          0 MSHR_MERGE:          0
cpu0->cpu0_ITLB TRANSLATION  ACCESS:          0 HIT:          0 MISS:          0 MSHR_MERGE:          0
cpu0->cpu0_ITLB PREFETCH REQUESTED:          0 ISSUED:          0 USEFUL:          0 USELESS:          0
cpu0->cpu0_ITLB AVERAGE MISS LATENCY: 212.1 cycles
cpu0->cpu0_DTLB TOTAL        ACCESS:    2798288 HIT:    2796400 MISS:       1888 MSHR_MERGE:        218
cpu0->cpu0_DTLB LOAD         ACCESS:    2798288 HIT:    2796400 MISS:       1888 MSHR_MERGE:        218
cpu0->cpu0_DTLB RFO          ACCESS:          0 HIT:          0 MISS:          0 MSHR_MERGE:          0
cpu0->cpu0_DTLB PREFETCH     ACCESS:          0 HIT:          0 MISS:          0 MSHR_MERGE:          0
cpu0->cpu0_DTLB WRITE        ACCESS:          0 HIT:          0 MISS:          0 MSHR_MERGE:          0
cpu0->cpu0_DTLB TRANSLATION  ACCESS:          0 HIT:          0 MISS:          0 MSHR_MERGE:          0
cpu0->cpu0_DTLB PREFETCH REQUESTED:          0 ISSUED:          0 USEFUL:          0 USELESS:          0
cpu0->cpu0_DTLB AVERAGE MISS LATENCY: 44.69 cycles
cpu0->LLC TOTAL        ACCESS:        804 HIT:          0 MISS:        804 MSHR_MERGE:          0
cpu0->LLC LOAD         ACCESS:        619 HIT:          0 MISS:        619 MSHR_MERGE:          0
cpu0->LLC RFO          ACCESS:         20 HIT:          0 MISS:         20 MSHR_MERGE:          0
cpu0->LLC PREFETCH     ACCESS:          0 HIT:          0 MISS:          0 MSHR_MERGE:          0
cpu0->LLC WRITE        ACCESS:          0 HIT:          0 MISS:          0 MSHR_MERGE:          0
cpu0->LLC TRANSLATION  ACCESS:        165 HIT:          0 MISS:        165 MSHR_MERGE:          0
cpu0->LLC PREFETCH REQUESTED:          0 ISSUED:          0 USEFUL:          0 USELESS:          0
cpu0->LLC AVERAGE MISS LATENCY: 172.7 cycles

DRAM Statistics

Channel 0 RQ ROW_BUFFER_HIT:          3
  ROW_BUFFER_MISS:        801
  AVG DBUS CONGESTED CYCLE: 2.826
Channel 0 WQ ROW_BUFFER_HIT:          0
  ROW_BUFFER_MISS:          0
  FULL:          0
Channel 0 REFRESHES ISSUED:        364
