[VMEM] WARNING: physical memory size is smaller than virtual memory size.

*** ChampSim Multicore Out-of-Order Simulator ***
Warmup Instructions: 2000000
Simulation Instructions: 10000000
Number of CPUs: 1
Page size: 4096

Off-chip DRAM Size: 16 GiB Channels: 1 Width: 64-bit Data Rate: 3205 MT/s
Warmup finished CPU 0 instructions: 2000001 cycles: 710200 cumulative IPC: 2.816 (Simulation time: 00 hr 00 min 06 sec)
Warmup complete CPU 0 instructions: 2000001 cycles: 710200 cumulative IPC: 2.816 (Simulation time: 00 hr 00 min 06 sec)
Heartbeat CPU 0 instructions: 10000002 cycles: 29937515 heartbeat IPC: 0.334 cumulative IPC: 0.2737 (Simulation time: 00 hr 02 min 12 sec)
Simulation finished CPU 0 instructions: 10000001 cycles: 36522624 cumulative IPC: 0.2738 (Simulation time: 00 hr 02 min 43 sec)
Simulation complete CPU 0 instructions: 10000001 cycles: 36522624 cumulative IPC: 0.2738 (Simulation time: 00 hr 02 min 43 sec)

ChampSim completed all CPUs

=== Simulation ===
CPU 0 runs traces/602.gcc_s-1850B.champsimtrace.xz

Region of Interest Statistics

CPU 0 cumulative IPC: 0.2738 instructions: 10000001 cycles: 36522624
CPU 0 Branch Prediction Accuracy: 96.36% MPKI: 9.323 Average ROB Occupancy at Mispredict: 54.65
Branch type MPKI
BRANCH_DIRECT_JUMP: 0.0151
BRANCH_INDIRECT: 0
BRANCH_CONDITIONAL: 9.308
BRANCH_DIRECT_CALL: 0.0001
BRANCH_INDIRECT_CALL: 0
BRANCH_RETURN: 0.0001

cpu0->cpu0_STLB TOTAL        ACCESS:       3283 HIT:        230 MISS:       3053 MSHR_MERGE:          0
cpu0->cpu0_STLB LOAD         ACCESS:       3283 HIT:        230 MISS:       3053 MSHR_MERGE:          0
cpu0->cpu0_STLB RFO          ACCESS:          0 HIT:          0 MISS:          0 MSHR_MERGE:          0
cpu0->cpu0_STLB PREFETCH     ACCESS:          0 HIT:          0 MISS:          0 MSHR_MERGE:          0
cpu0->cpu0_STLB WRITE        ACCESS:          0 HIT:          0 MISS:          0 MSHR_MERGE:          0
cpu0->cpu0_STLB TRANSLATION  ACCESS:          0 HIT:          0 MISS:          0 MSHR_MERGE:          0
cpu0->cpu0_STLB PREFETCH REQUESTED:          0 ISSUED:          0 USEFUL:          0 USELESS:          0
cpu0->cpu0_STLB AVERAGE MISS LATENCY: 691.4 cycles
cpu0->cpu0_L2C TOTAL        ACCESS:     246286 HIT:      64415 MISS:     181871 MSHR_MERGE:          0
cpu0->cpu0_L2C LOAD         ACCESS:     241801 HIT:      63677 MISS:     178124 MSHR_MERGE:          0
cpu0->cpu0_L2C RFO          ACCESS:         17 HIT:          0 MISS:         17 MSHR_MERGE:          0
cpu0->cpu0_L2C PREFETCH     ACCESS:          0 HIT:          0 MISS:          0 MSHR_MERGE:          0
cpu0->cpu0_L2C WRITE        ACCESS:        640 HIT:        640 MISS:          0 MSHR_MERGE:          0
cpu0->cpu0_L2C TRANSLATION  ACCESS:       3828 HIT:         98 MISS:       3730 MSHR_MERGE:          0
cpu0->cpu0_L2C PREFETCH REQUESTED:          0 ISSUED:          0 USEFUL:          0 USELESS:          0
cpu0->cpu0_L2C AVERAGE MISS LATENCY: 153.9 cycles
cpu0->cpu0_L1I TOTAL        ACCESS:     302518 HIT:     302518 MISS:          0 MSHR_MERGE:          0
cpu0->cpu0_L1I LOAD         ACCESS:     302518 HIT:     302518 MISS:          0 MSHR_MERGE:          0
cpu0->cpu0_L1I RFO          ACCESS:          0 HIT:          0 MISS:          0 MSHR_MERGE:          0
cpu0->cpu0_L1I PREFETCH     ACCESS:          0 HIT:          0 MISS:          0 MSHR_MERGE:          0
cpu0->cpu0_L1I WRITE        ACCESS:          0 HIT:          0 MISS:          0 MSHR_MERGE:          0
cpu0->cpu0_L1I TRANSLATION  ACCESS:          0 HIT:          0 MISS:          0 MSHR_MERGE:          0
cpu0->cpu0_L1I PREFETCH REQUESTED:          0 ISSUED:          0 USEFUL:          0 USELESS:          0
cpu0->cpu0_L1I AVERAGE MISS LATENCY: - cycles
cpu0->cpu0_L1D TOTAL        ACCESS:    2686393 HIT:    2222347 MISS:     464046 MSHR_MERGE:     218400
cpu0->cpu0_L1D LOAD         ACCESS:    1817415 HIT:    1357215 MISS:     460200 MSHR_MERGE:     218399
cpu0->cpu0_L1D RFO          ACCESS:          0 HIT:          0 MISS:          0 MSHR_MERGE:          0
cpu0->cpu0_L1D PREFETCH     ACCESS:          0 HIT:          0 MISS:          0 MSHR_MERGE:          0
cpu0->cpu0_L1D WRITE        ACCESS:     862840 HIT:     862823 MISS:         17 MSHR_MERGE:          0
cpu0->cpu0_L1D TRANSLATION  ACCESS:       6138 HIT:       2309 MISS:       3829 MSHR_MERGE:          1
cpu0->cpu0_L1D PREFETCH REQUESTED:          0 ISSUED:          0 USEFUL:          0 USELESS:          0
cpu0->cpu0_L1D AVERAGE MISS LATENCY: 122.7 cycles
cpu0->cpu0_ITLB TOTAL        ACCESS:     253452 HIT:     253452 MISS:          0 MSHR_MERGE:          0
cpu0->cpu0_ITLB LOAD         ACCESS:     253452 HIT:     253452 MISS:          0 MSHR_MERGE:          0
cpu0->cpu0_ITLB RFO          ACCESS:          0 HIT:          0 MISS:          0 MSHR_MERGE:          0
cpu0->cpu0_ITLB PREFETCH     ACCESS:          0 HIT:          0 MISS:          0 MSHR_MERGE:          0
cpu0->cpu0_ITLB WRITE        ACCESS:          0 HIT:          0 MISS:          0 MSHR_MERGE:          0
cpu0->cpu0_ITLB TRANSLATION  ACCESS:          0 HIT:          0 MISS:          0 MSHR_MERGE:          0
cpu0->cpu0_ITLB PREFETCH REQUESTED:          0 ISSUED:          0 USEFUL:          0 USELESS:          0
cpu0->cpu0_ITLB AVERAGE MISS LATENCY: - cycles
cpu0->cpu0_DTLB TOTAL        ACCESS:    2479440 HIT:    2472304 MISS:       7136 MSHR_MERGE:       3853
cpu0->cpu0_DTLB LOAD         ACCESS:    2479440 HIT:    2472304 MISS:       7136 MSHR_MERGE:       3853
cpu0->cpu0_DTLB RFO          ACCESS:          0 HIT:          0 MISS:          0 MSHR_MERGE:          0
cpu0->cpu0_DTLB PREFETCH     ACCESS:          0 HIT:          0 MISS:          0 MSHR_MERGE:          0
cpu0->cpu0_DTLB WRITE        ACCESS:          0 HIT:          0 MISS:          0 MSHR_MERGE:          0
cpu0->cpu0_DTLB TRANSLATION  ACCESS:          0 HIT:          0 MISS:          0 MSHR_MERGE:          0
cpu0->cpu0_DTLB PREFETCH REQUESTED:          0 ISSUED:          0 USEFUL:          0 USELESS:          0
cpu0->cpu0_DTLB AVERAGE MISS LATENCY: 648.9 cycles
cpu0->LLC TOTAL        ACCESS:     182157 HIT:        560 MISS:     181597 MSHR_MERGE:          0
cpu0->LLC LOAD         ACCESS:     178124 HIT:        259 MISS:     177865 MSHR_MERGE:          0
cpu0->LLC RFO          ACCESS:         17 HIT:          0 MISS:         17 MSHR_MERGE:          0
cpu0->LLC PREFETCH     ACCESS:          0 HIT:          0 MISS:          0 MSHR_MERGE:          0
cpu0->LLC WRITE        ACCESS:        286 HIT:        285 MISS:          1 MSHR_MERGE:          0
cpu0->LLC TRANSLATION  ACCESS:       3730 HIT:         16 MISS:       3714 MSHR_MERGE:          0
cpu0->LLC PREFETCH REQUESTED:          0 ISSUED:          0 USEFUL:          0 USELESS:          0
cpu0->LLC AVERAGE MISS LATENCY: 138.1 cycles

DRAM Statistics

Channel 0 RQ ROW_BUFFER_HIT:      57534
  ROW_BUFFER_MISS:     124062
  AVG DBUS CONGESTED CYCLE: 24.81
Channel 0 WQ ROW_BUFFER_HIT:        102
  ROW_BUFFER_MISS:        179
  FULL:          0
Channel 0 REFRESHES ISSUED:       3043
