[VMEM] WARNING: physical memory size is smaller than virtual memory size.

*** ChampSim Multicore Out-of-Order Simulator ***
Warmup Instructions: 2000000
Simulation Instructions: 10000000
Number of CPUs: 1
Page size: 4096

Off-chip DRAM Size: 16 GiB Channels: 1 Width: 64-bit Data Rate: 3205 MT/s
Warmup finished CPU 0 instructions: 2000000 cycles: 943411 cumulative IPC: 2.12 (Simulation time: 00 hr 00 min 08 sec)
Warmup complete CPU 0 instructions: 2000000 cycles: 943411 cumulative IPC: 2.12 (Simulation time: 00 hr 00 min 08 sec)
Heartbeat CPU 0 instructions: 10000004 cycles: 34640470 heartbeat IPC: 0.2887 cumulative IPC: 0.2374 (Simulation time: 00 hr 03 min 46 sec)
Simulation finished CPU 0 instructions: 10000003 cycles: 42187862 cumulative IPC: 0.237 (Simulation time: 00 hr 04 min 40 sec)
Simulation complete CPU 0 instructions: 10000003 cycles: 42187862 cumulative IPC: 0.237 (Simulation time: 00 hr 04 min 40 sec)

ChampSim completed all CPUs

=== Simulation ===
CPU 0 runs traces/605.mcf_s-1536B.champsimtrace.xz

Region of Interest Statistics

CPU 0 cumulative IPC: 0.237 instructions: 10000003 cycles: 42187862
CPU 0 Branch Prediction Accuracy: 99.98% MPKI: 0.0309 Average ROB Occupancy at Mispredict: 263.3
Branch type MPKI
BRANCH_DIRECT_JUMP: 0
BRANCH_INDIRECT: 0
BRANCH_CONDITIONAL: 0.0309
BRANCH_DIRECT_CALL: 0
BRANCH_INDIRECT_CALL: 0
BRANCH_RETURN: 0

cpu0->cpu0_STLB TOTAL        ACCESS:     298841 HIT:      73157 MISS:     225684 MSHR_MERGE:          0
cpu0->cpu0_STLB LOAD         ACCESS:     298841 HIT:      73157 MISS:     225684 MSHR_MERGE:          0
cpu0->cpu0_STLB RFO          ACCESS:          0 HIT:          0 MISS:          0 MSHR_MERGE:          0
cpu0->cpu0_STLB PREFETCH     ACCESS:          0 HIT:          0 MISS:          0 MSHR_MERGE:          0
cpu0->cpu0_STLB WRITE        ACCESS:          0 HIT:          0 MISS:          0 MSHR_MERGE:          0
cpu0->cpu0_STLB TRANSLATION  ACCESS:          0 HIT:          0 MISS:          0 MSHR_MERGE:          0
cpu0->cpu0_STLB PREFETCH REQUESTED:          0 ISSUED:          0 USEFUL:          0 USELESS:          0
cpu0->cpu0_STLB AVERAGE MISS LATENCY: 86.75 cycles
cpu0->cpu0_L2C TOTAL        ACCESS:    1106638 HIT:     417090 MISS:     689548 MSHR_MERGE:          0
cpu0->cpu0_L2C LOAD         ACCESS:     407177 HIT:      95175 MISS:     312002 MSHR_MERGE:          0
cpu0->cpu0_L2C RFO          ACCESS:      28713 HIT:       7648 MISS:      21065 MSHR_MERGE:          0
cpu0->cpu0_L2C PREFETCH     ACCESS:          0 HIT:          0 MISS:          0 MSHR_MERGE:          0
cpu0->cpu0_L2C WRITE        ACCESS:     222681 HIT:     222681 MISS:          0 MSHR_MERGE:          0
cpu0->cpu0_L2C TRANSLATION  ACCESS:     448067 HIT:      91586 MISS:     356481 MSHR_MERGE:          0
cpu0->cpu0_L2C PREFETCH REQUESTED:          0 ISSUED:          0 USEFUL:          0 USELESS:          0
cpu0->cpu0_L2C AVERAGE MISS LATENCY: 108.5 cycles
cpu0->cpu0_L1I TOTAL        ACCESS:    2215070 HIT:    2215070 MISS:          0 MSHR_MERGE:          0
cpu0->cpu0_L1I LOAD         ACCESS:    2215070 HIT:    2215070 MISS:          0 MSHR_MERGE:          0
cpu0->cpu0_L1I RFO          ACCESS:          0 HIT:          0 MISS:          0 MSHR_MERGE:          0
cpu0->cpu0_L1I PREFETCH     ACCESS:          0 HIT:          0 MISS:          0 MSHR_MERGE:          0
cpu0->cpu0_L1I WRITE        ACCESS:          0 HIT:          0 MISS:          0 MSHR_MERGE:          0
cpu0->cpu0_L1I TRANSLATION  ACCESS:          0 HIT:          0 MISS:          0 MSHR_MERGE:          0
cpu0->cpu0_L1I PREFETCH REQUESTED:          0 ISSUED:          0 USEFUL:          0 USELESS:          0
cpu0->cpu0_L1I AVERAGE MISS LATENCY: - cycles
cpu0->cpu0_L1D TOTAL        ACCESS:    2923867 HIT:    1703268 MISS:    1220599 MSHR_MERGE:     336636
cpu0->cpu0_L1D LOAD         ACCESS:    1993638 HIT:    1255400 MISS:     738238 MSHR_MERGE:     331061
cpu0->cpu0_L1D RFO          ACCESS:          0 HIT:          0 MISS:          0 MSHR_MERGE:          0
cpu0->cpu0_L1D PREFETCH     ACCESS:          0 HIT:          0 MISS:          0 MSHR_MERGE:          0
cpu0->cpu0_L1D WRITE        ACCESS:     443442 HIT:     414714 MISS:      28728 MSHR_MERGE:         10
cpu0->cpu0_L1D TRANSLATION  ACCESS:     486787 HIT:      33154 MISS:     453633 MSHR_MERGE:       5565
cpu0->cpu0_L1D PREFETCH REQUESTED:          0 ISSUED:          0 USEFUL:          0 USELESS:          0
cpu0->cpu0_L1D AVERAGE MISS LATENCY: 93.52 cycles
cpu0->cpu0_ITLB TOTAL        ACCESS:    1984329 HIT:    1984329 MISS:          0 MSHR_MERGE:          0
cpu0->cpu0_ITLB LOAD         ACCESS:    1984329 HIT:    1984329 MISS:          0 MSHR_MERGE:          0
cpu0->cpu0_ITLB RFO          ACCESS:          0 HIT:          0 MISS:          0 MSHR_MERGE:          0
cpu0->cpu0_ITLB PREFETCH     ACCESS:          0 HIT:          0 MISS:          0 MSHR_MERGE:          0
cpu0->cpu0_ITLB WRITE        ACCESS:          0 HIT:          0 MISS:          0 MSHR_MERGE:          0
cpu0->cpu0_ITLB TRANSLATION  ACCESS:          0 HIT:          0 MISS:          0 MSHR_MERGE:          0
cpu0->cpu0_ITLB PREFETCH REQUESTED:          0 ISSUED:          0 USEFUL:          0 USELESS:          0
cpu0->cpu0_ITLB AVERAGE MISS LATENCY: - cycles
cpu0->cpu0_DTLB TOTAL        ACCESS:    2417123 HIT:    1726199 MISS:     690924 MSHR_MERGE:     392084
cpu0->cpu0_DTLB LOAD         ACCESS:    2417123 HIT:    1726199 MISS:     690924 MSHR_MERGE:     392084
cpu0->cpu0_DTLB RFO          ACCESS:          0 HIT:          0 MISS:          0 MSHR_MERGE:          0
cpu0->cpu0_DTLB PREFETCH     ACCESS:          0 HIT:          0 MISS:          0 MSHR_MERGE:          0
cpu0->cpu0_DTLB WRITE        ACCESS:          0 HIT:          0 MISS:          0 MSHR_MERGE:          0
cpu0->cpu0_DTLB TRANSLATION  ACCESS:          0 HIT:          0 MISS:          0 MSHR_MERGE:          0
cpu0->cpu0_DTLB PREFETCH REQUESTED:          0 ISSUED:          0 USEFUL:          0 USELESS:          0
cpu0->cpu0_DTLB AVERAGE MISS LATENCY: 71.27 cycles
cpu0->LLC TOTAL        ACCESS:     911309 HIT:     631133 MISS:     280176 MSHR_MERGE:          0
cpu0->LLC LOAD         ACCESS:     312002 HIT:      53420 MISS:     258582 MSHR_MERGE:          0
cpu0->LLC RFO          ACCESS:      21065 HIT:      21060 MISS:          5 MSHR_MERGE:          0
cpu0->LLC PREFETCH     ACCESS:          0 HIT:          0 MISS:          0 MSHR_MERGE:          0
cpu0->LLC WRITE        ACCESS:     221761 HIT:     221761 MISS:          0 MSHR_MERGE:          0
cpu0->LLC TRANSLATION  ACCESS:     356481 HIT:     334892 MISS:      21589 MSHR_MERGE:          0
cpu0->LLC PREFETCH REQUESTED:          0 ISSUED:          0 USEFUL:          0 USELESS:          0
cpu0->LLC AVERAGE MISS LATENCY: 229.1 cycles

DRAM Statistics

Channel 0 RQ ROW_BUFFER_HIT:         75
  ROW_BUFFER_MISS:     280101
  AVG DBUS CONGESTED CYCLE: 5.858
Channel 0 WQ ROW_BUFFER_HIT:      72905
  ROW_BUFFER_MISS:     150336
  FULL:          0
Channel 0 REFRESHES ISSUED:       3516
