[VMEM] WARNING: physical memory size is smaller than virtual memory size.

*** ChampSim Multicore Out-of-Order Simulator ***
Warmup Instructions: 2000000
Simulation Instructions: 10000000
Number of CPUs: 1
Page size: 4096

Off-chip DRAM Size: 16 GiB Channels: 1 Width: 64-bit Data Rate: 3205 MT/s
Warmup finished CPU 0 instructions: 2000004 cycles: 666941 cumulative IPC: 2.999 (Simulation time: 00 hr 00 min 06 sec)
Warmup complete CPU 0 instructions: 2000004 cycles: 666941 cumulative IPC: 2.999 (Simulation time: 00 hr 00 min 06 sec)
Heartbeat CPU 0 instructions: 10000001 cycles: 18497510 heartbeat IPC: 0.5406 cumulative IPC: 0.4487 (Simulation time: 00 hr 02 min 17 sec)
Simulation finished CPU 0 instructions: 10000004 cycles: 22125918 cumulative IPC: 0.452 (Simulation time: 00 hr 02 min 48 sec)
Simulation complete CPU 0 instructions: 10000004 cycles: 22125918 cumulative IPC: 0.452 (Simulation time: 00 hr 02 min 48 sec)

ChampSim completed all CPUs

=== Simulation ===
CPU 0 runs traces/619.lbm_s-2676B.champsimtrace.xz

Region of Interest Statistics

CPU 0 cumulative IPC: 0.452 instructions: 10000004 cycles: 22125918
CPU 0 Branch Prediction Accuracy: 97.13% MPKI: 0.5014 Average ROB Occupancy at Mispredict: 246.7
Branch type MPKI
BRANCH_DIRECT_JUMP: 0
BRANCH_INDIRECT: 0
BRANCH_CONDITIONAL: 0.5014
BRANCH_DIRECT_CALL: 0
BRANCH_INDIRECT_CALL: 0
BRANCH_RETURN: 0

cpu0->cpu0_STLB TOTAL        ACCESS:      13234 HIT:       6052 MISS:       7182 MSHR_MERGE:          0
cpu0->cpu0_STLB LOAD         ACCESS:      13234 HIT:       6052 MISS:       7182 MSHR_MERGE:          0
cpu0->cpu0_STLB RFO          ACCESS:          0 HIT:          0 MISS:          0 MSHR_MERGE:          0
cpu0->cpu0_STLB PREFETCH     ACCESS:          0 HIT:          0 MISS:          0 MSHR_MERGE:          0
cpu0->cpu0_STLB WRITE        ACCESS:          0 HIT:          0 MISS:          0 MSHR_MERGE:          0
cpu0->cpu0_STLB TRANSLATION  ACCESS:          0 HIT:          0 MISS:          0 MSHR_MERGE:          0
cpu0->cpu0_STLB PREFETCH REQUESTED:          0 ISSUED:          0 USEFUL:          0 USELESS:          0
cpu0->cpu0_STLB AVERAGE MISS LATENCY: 1066 cycles
cpu0->cpu0_L2C TOTAL        ACCESS:    1418632 HIT:     940042 MISS:     478590 MSHR_MERGE:          0
cpu0->cpu0_L2C LOAD         ACCESS:     114887 HIT:          3 MISS:     114884 MSHR_MERGE:          0
cpu0->cpu0_L2C RFO          ACCESS:     647820 HIT:     292202 MISS:     355618 MSHR_MERGE:          0
cpu0->cpu0_L2C PREFETCH     ACCESS:          0 HIT:          0 MISS:          0 MSHR_MERGE:          0
cpu0->cpu0_L2C WRITE        ACCESS:     647836 HIT:     647836 MISS:          0 MSHR_MERGE:          0
cpu0->cpu0_L2C TRANSLATION  ACCESS:       8089 HIT:          1 MISS:       8088 MSHR_MERGE:          0
cpu0->cpu0_L2C PREFETCH REQUESTED:          0 ISSUED:          0 USEFUL:          0 USELESS:          0
cpu0->cpu0_L2C AVERAGE MISS LATENCY: 488.9 cycles
cpu0->cpu0_L1I TOTAL        ACCESS:    1618198 HIT:    1618198 MISS:          0 MSHR_MERGE:          0
cpu0->cpu0_L1I LOAD         ACCESS:    1618198 HIT:    1618198 MISS:          0 MSHR_MERGE:          0
cpu0->cpu0_L1I RFO          ACCESS:          0 HIT:          0 MISS:          0 MSHR_MERGE:          0
cpu0->cpu0_L1I PREFETCH     ACCESS:          0 HIT:          0 MISS:          0 MSHR_MERGE:          0
cpu0->cpu0_L1I WRITE        ACCESS:          0 HIT:          0 MISS:          0 MSHR_MERGE:          0
cpu0->cpu0_L1I TRANSLATION  ACCESS:          0 HIT:          0 MISS:          0 MSHR_MERGE:          0
cpu0->cpu0_L1I PREFETCH REQUESTED:          0 ISSUED:          0 USEFUL:          0 USELESS:          0
cpu0->cpu0_L1I AVERAGE MISS LATENCY: - cycles
cpu0->cpu0_L1D TOTAL        ACCESS:    2453084 HIT:    1508671 MISS:     944413 MSHR_MERGE:     173599
cpu0->cpu0_L1D LOAD         ACCESS:     626544 HIT:     370507 MISS:     256037 MSHR_MERGE:     141150
cpu0->cpu0_L1D RFO          ACCESS:          0 HIT:          0 MISS:          0 MSHR_MERGE:          0
cpu0->cpu0_L1D PREFETCH     ACCESS:          0 HIT:          0 MISS:          0 MSHR_MERGE:          0
cpu0->cpu0_L1D WRITE        ACCESS:    1812167 HIT:    1131880 MISS:     680287 MSHR_MERGE:      32449
cpu0->cpu0_L1D TRANSLATION  ACCESS:      14373 HIT:       6284 MISS:       8089 MSHR_MERGE:          0
cpu0->cpu0_L1D PREFETCH REQUESTED:          0 ISSUED:          0 USEFUL:          0 USELESS:          0
cpu0->cpu0_L1D AVERAGE MISS LATENCY: 313.1 cycles
cpu0->cpu0_ITLB TOTAL        ACCESS:    1206460 HIT:    1206460 MISS:          0 MSHR_MERGE:          0
cpu0->cpu0_ITLB LOAD         ACCESS:    1206460 HIT:    1206460 MISS:          0 MSHR_MERGE:          0
cpu0->cpu0_ITLB RFO          ACCESS:          0 HIT:          0 MISS:          0 MSHR_MERGE:          0
cpu0->cpu0_ITLB PREFETCH     ACCESS:          0 HIT:          0 MISS:          0 MSHR_MERGE:          0
cpu0->cpu0_ITLB WRITE        ACCESS:          0 HIT:          0 MISS:          0 MSHR_MERGE:          0
cpu0->cpu0_ITLB TRANSLATION  ACCESS:          0 HIT:          0 MISS:          0 MSHR_MERGE:          0
cpu0->cpu0_ITLB PREFETCH REQUESTED:          0 ISSUED:          0 USEFUL:          0 USELESS:          0
cpu0->cpu0_ITLB AVERAGE MISS LATENCY: - cycles
cpu0->cpu0_DTLB TOTAL        ACCESS:    2300006 HIT:    2254528 MISS:      45478 MSHR_MERGE:      32244
cpu0->cpu0_DTLB LOAD         ACCESS:    2300006 HIT:    2254528 MISS:      45478 MSHR_MERGE:      32244
cpu0->cpu0_DTLB RFO          ACCESS:          0 HIT:          0 MISS:          0 MSHR_MERGE:          0
cpu0->cpu0_DTLB PREFETCH     ACCESS:          0 HIT:          0 MISS:          0 MSHR_MERGE:          0
cpu0->cpu0_DTLB WRITE        ACCESS:          0 HIT:          0 MISS:          0 MSHR_MERGE:          0
cpu0->cpu0_DTLB TRANSLATION  ACCESS:          0 HIT:          0 MISS:          0 MSHR_MERGE:          0
cpu0->cpu0_DTLB PREFETCH REQUESTED:          0 ISSUED:          0 USEFUL:          0 USELESS:          0
cpu0->cpu0_DTLB AVERAGE MISS LATENCY: 584.1 cycles
cpu0->LLC TOTAL        ACCESS:     834098 HIT:     366525 MISS:     467573 MSHR_MERGE:          0
cpu0->LLC LOAD         ACCESS:     114884 HIT:          5 MISS:     114879 MSHR_MERGE:          0
cpu0->LLC RFO          ACCESS:     355618 HIT:      11016 MISS:     344602 MSHR_MERGE:          0
cpu0->LLC PREFETCH     ACCESS:          0 HIT:          0 MISS:          0 MSHR_MERGE:          0
cpu0->LLC WRITE        ACCESS:     355508 HIT:     355504 MISS:          4 MSHR_MERGE:          0
cpu0->LLC TRANSLATION  ACCESS:       8088 HIT:          0 MISS:       8088 MSHR_MERGE:          0
cpu0->LLC PREFETCH REQUESTED:          0 ISSUED:          0 USEFUL:          0 USELESS:          0
cpu0->LLC AVERAGE MISS LATENCY: 483.9 cycles

DRAM Statistics

Channel 0 RQ ROW_BUFFER_HIT:      25089
  ROW_BUFFER_MISS:     442480
  AVG DBUS CONGESTED CYCLE: 7.284
Channel 0 WQ ROW_BUFFER_HIT:      54847
  ROW_BUFFER_MISS:     289707
  FULL:          0
Channel 0 REFRESHES ISSUED:       1844
