[VMEM] WARNING: physical memory size is smaller than virtual memory size.

*** ChampSim Multicore Out-of-Order Simulator ***
Warmup Instructions: 2000000
Simulation Instructions: 10000000
Number of CPUs: 1
Page size: 4096

Off-chip DRAM Size: 16 GiB Channels: 1 Width: 64-bit Data Rate: 3205 MT/s
Warmup finished CPU 0 instructions: 2000000 cycles: 1507500 cumulative IPC: 1.327 (Simulation time: 00 hr 00 min 13 sec)
Warmup complete CPU 0 instructions: 2000000 cycles: 1507500 cumulative IPC: 1.327 (Simulation time: 00 hr 00 min 13 sec)
Heartbeat CPU 0 instructions: 10000002 cycles: 35822712 heartbeat IPC: 0.2792 cumulative IPC: 0.2331 (Simulation time: 00 hr 02 min 46 sec)
Simulation finished CPU 0 instructions: 10000002 cycles: 42688811 cumulative IPC: 0.2343 (Simulation time: 00 hr 03 min 23 sec)
Simulation complete CPU 0 instructions: 10000002 cycles: 42688811 cumulative IPC: 0.2343 (Simulation time: 00 hr 03 min 23 sec)

ChampSim completed all CPUs

=== Simulation ===
CPU 0 runs traces/620.omnetpp_s-141B.champsimtrace.xz

Region of Interest Statistics

CPU 0 cumulative IPC: 0.2343 instructions: 10000002 cycles: 42688811
CPU 0 Branch Prediction Accuracy: 90.89% MPKI: 19.13 Average ROB Occupancy at Mispredict: 30.4
Branch type MPKI
BRANCH_DIRECT_JUMP: 0.8198
BRANCH_INDIRECT: 0.366
BRANCH_CONDITIONAL: 16.65
BRANCH_DIRECT_CALL: 0.004
BRANCH_INDIRECT_CALL: 0.8598
BRANCH_RETURN: 0.4394

cpu0->cpu0_STLB TOTAL        ACCESS:     225145 HIT:     176215 MISS:      48930 MSHR_MERGE:          0
cpu0->cpu0_STLB LOAD         ACCESS:     225145 HIT:     176215 MISS:      48930 MSHR_MERGE:          0
cpu0->cpu0_STLB RFO          ACCESS:          0 HIT:          0 MISS:          0 MSHR_MERGE:          0
cpu0->cpu0_STLB PREFETCH     ACCESS:          0 HIT:          0 MISS:          0 MSHR_MERGE:          0
cpu0->cpu0_STLB WRITE        ACCESS:          0 HIT:          0 MISS:          0 MSHR_MERGE:          0
cpu0->cpu0_STLB TRANSLATION  ACCESS:          0 HIT:          0 MISS:          0 MSHR_MERGE:          0
cpu0->cpu0_STLB PREFETCH REQUESTED:          0 ISSUED:          0 USEFUL:          0 USELESS:          0
cpu0->cpu0_STLB AVERAGE MISS LATENCY: 425.7 cycles
cpu0->cpu0_L2C TOTAL        ACCESS:     407222 HIT:     179077 MISS:     228145 MSHR_MERGE:          0
cpu0->cpu0_L2C LOAD         ACCESS:     178358 HIT:      51938 MISS:     126420 MSHR_MERGE:          0
cpu0->cpu0_L2C RFO          ACCESS:      23782 HIT:       4698 MISS:      19084 MSHR_MERGE:          0
cpu0->cpu0_L2C PREFETCH     ACCESS:          0 HIT:          0 MISS:          0 MSHR_MERGE:          0
cpu0->cpu0_L2C WRITE        ACCESS:      96002 HIT:      95797 MISS:        205 MSHR_MERGE:          0
cpu0->cpu0_L2C TRANSLATION  ACCESS:     109080 HIT:      26644 MISS:      82436 MSHR_MERGE:          0
cpu0->cpu0_L2C PREFETCH REQUESTED:          0 ISSUED:          0 USEFUL:          0 USELESS:          0
cpu0->cpu0_L2C AVERAGE MISS LATENCY: 151.5 cycles
cpu0->cpu0_L1I TOTAL        ACCESS:    1350185 HIT:    1343481 MISS:       6704 MSHR_MERGE:        904
cpu0->cpu0_L1I LOAD         ACCESS:    1350185 HIT:    1343481 MISS:       6704 MSHR_MERGE:        904
cpu0->cpu0_L1I RFO          ACCESS:          0 HIT:          0 MISS:          0 MSHR_MERGE:          0
cpu0->cpu0_L1I PREFETCH     ACCESS:          0 HIT:          0 MISS:          0 MSHR_MERGE:          0
cpu0->cpu0_L1I WRITE        ACCESS:          0 HIT:          0 MISS:          0 MSHR_MERGE:          0
cpu0->cpu0_L1I TRANSLATION  ACCESS:          0 HIT:          0 MISS:          0 MSHR_MERGE:          0
cpu0->cpu0_L1I PREFETCH REQUESTED:          0 ISSUED:          0 USEFUL:          0 USELESS:          0
cpu0->cpu0_L1I AVERAGE MISS LATENCY: 19.65 cycles
cpu0->cpu0_L1D TOTAL        ACCESS:    4125258 HIT:    3721483 MISS:     403775 MSHR_MERGE:      98355
cpu0->cpu0_L1D LOAD         ACCESS:    2184797 HIT:    1963156 MISS:     221641 MSHR_MERGE:      49083
cpu0->cpu0_L1D RFO          ACCESS:          0 HIT:          0 MISS:          0 MSHR_MERGE:          0
cpu0->cpu0_L1D PREFETCH     ACCESS:          0 HIT:          0 MISS:          0 MSHR_MERGE:          0
cpu0->cpu0_L1D WRITE        ACCESS:    1822484 HIT:    1749600 MISS:      72884 MSHR_MERGE:      49102
cpu0->cpu0_L1D TRANSLATION  ACCESS:     117977 HIT:       8727 MISS:     109250 MSHR_MERGE:        170
cpu0->cpu0_L1D PREFETCH REQUESTED:          0 ISSUED:          0 USEFUL:          0 USELESS:          0
cpu0->cpu0_L1D AVERAGE MISS LATENCY: 121.7 cycles
cpu0->cpu0_ITLB TOTAL        ACCESS:    1199163 HIT:    1175045 MISS:      24118 MSHR_MERGE:       8979
cpu0->cpu0_ITLB LOAD         ACCESS:    1199163 HIT:    1175045 MISS:      24118 MSHR_MERGE:       8979
cpu0->cpu0_ITLB RFO          ACCESS:          0 HIT:          0 MISS:          0 MSHR_MERGE:          0
cpu0->cpu0_ITLB PREFETCH     ACCESS:          0 HIT:          0 MISS:          0 MSHR_MERGE:          0
cpu0->cpu0_ITLB WRITE        ACCESS:          0 HIT:          0 MISS:          0 MSHR_MERGE:          0
cpu0->cpu0_ITLB TRANSLATION  ACCESS:          0 HIT:          0 MISS:          0 MSHR_MERGE:          0
cpu0->cpu0_ITLB PREFETCH REQUESTED:          0 ISSUED:          0 USEFUL:          0 USELESS:          0
cpu0->cpu0_ITLB AVERAGE MISS LATENCY: 8.326 cycles
cpu0->cpu0_DTLB TOTAL        ACCESS:    3819304 HIT:    3569734 MISS:     249570 MSHR_MERGE:      39564
cpu0->cpu0_DTLB LOAD         ACCESS:    3819304 HIT:    3569734 MISS:     249570 MSHR_MERGE:      39564
cpu0->cpu0_DTLB RFO          ACCESS:          0 HIT:          0 MISS:          0 MSHR_MERGE:          0
cpu0->cpu0_DTLB PREFETCH     ACCESS:          0 HIT:          0 MISS:          0 MSHR_MERGE:          0
cpu0->cpu0_DTLB WRITE        ACCESS:          0 HIT:          0 MISS:          0 MSHR_MERGE:          0
cpu0->cpu0_DTLB TRANSLATION  ACCESS:          0 HIT:          0 MISS:          0 MSHR_MERGE:          0
cpu0->cpu0_DTLB PREFETCH REQUESTED:          0 ISSUED:          0 USEFUL:          0 USELESS:          0
cpu0->cpu0_DTLB AVERAGE MISS LATENCY: 104.2 cycles
cpu0->LLC TOTAL        ACCESS:     300683 HIT:     134117 MISS:     166566 MSHR_MERGE:          0
cpu0->LLC LOAD         ACCESS:     126420 HIT:      29636 MISS:      96784 MSHR_MERGE:          0
cpu0->LLC RFO          ACCESS:      19084 HIT:       7020 MISS:      12064 MSHR_MERGE:          0
cpu0->LLC PREFETCH     ACCESS:          0 HIT:          0 MISS:          0 MSHR_MERGE:          0
cpu0->LLC WRITE        ACCESS:      72743 HIT:      72473 MISS:        270 MSHR_MERGE:          0
cpu0->LLC TRANSLATION  ACCESS:      82436 HIT:      24988 MISS:      57448 MSHR_MERGE:          0
cpu0->LLC PREFETCH REQUESTED:          0 ISSUED:          0 USEFUL:          0 USELESS:          0
cpu0->LLC AVERAGE MISS LATENCY: 186 cycles

DRAM Statistics

Channel 0 RQ ROW_BUFFER_HIT:        547
  ROW_BUFFER_MISS:     165745
  AVG DBUS CONGESTED CYCLE: 20.43
Channel 0 WQ ROW_BUFFER_HIT:      15198
  ROW_BUFFER_MISS:      36621
  FULL:          0
Channel 0 REFRESHES ISSUED:       3558
