[VMEM] WARNING: physical memory size is smaller than virtual memory size.

*** ChampSim Multicore Out-of-Order Simulator ***
Warmup Instructions: 2000000
Simulation Instructions: 10000000
Number of CPUs: 1
Page size: 4096

Off-chip DRAM Size: 16 GiB Channels: 1 Width: 64-bit Data Rate: 3205 MT/s
Warmup finished CPU 0 instructions: 2000003 cycles: 505149 cumulative IPC: 3.959 (Simulation time: 00 hr 00 min 04 sec)
Warmup complete CPU 0 instructions: 2000003 cycles: 505149 cumulative IPC: 3.959 (Simulation time: 00 hr 00 min 04 sec)
Heartbeat CPU 0 instructions: 10000002 cycles: 7120923 heartbeat IPC: 1.404 cumulative IPC: 1.209 (Simulation time: 00 hr 00 min 41 sec)
Simulation finished CPU 0 instructions: 10000003 cycles: 8239789 cumulative IPC: 1.214 (Simulation time: 00 hr 00 min 50 sec)
Simulation complete CPU 0 instructions: 10000003 cycles: 8239789 cumulative IPC: 1.214 (Simulation time: 00 hr 00 min 50 sec)

ChampSim completed all CPUs

=== Simulation ===
CPU 0 runs traces/621.wrf_s-575B.champsimtrace.xz

Region of Interest Statistics

CPU 0 cumulative IPC: 1.214 instructions: 10000003 cycles: 8239789
CPU 0 Branch Prediction Accuracy: 94.86% MPKI: 6.891 Average ROB Occupancy at Mispredict: 88.53
Branch type MPKI
BRANCH_DIRECT_JUMP: 0.0016
BRANCH_INDIRECT: 0
BRANCH_CONDITIONAL: 6.86
BRANCH_DIRECT_CALL: 0.0078
BRANCH_INDIRECT_CALL: 0
BRANCH_RETURN: 0.021

cpu0->cpu0_STLB TOTAL        ACCESS:        237 HIT:        174 MISS:         63 MSHR_MERGE:          0
cpu0->cpu0_STLB LOAD         ACCESS:        237 HIT:        174 MISS:         63 MSHR_MERGE:          0
cpu0->cpu0_STLB RFO          ACCESS:          0 HIT:          0 MISS:          0 MSHR_MERGE:          0
cpu0->cpu0_STLB PREFETCH     ACCESS:          0 HIT:          0 MISS:          0 MSHR_MERGE:          0
cpu0->cpu0_STLB WRITE        ACCESS:          0 HIT:          0 MISS:          0 MSHR_MERGE:          0
cpu0->cpu0_STLB TRANSLATION  ACCESS:          0 HIT:          0 MISS:          0 MSHR_MERGE:          0
cpu0->cpu0_STLB PREFETCH REQUESTED:          0 ISSUED:          0 USEFUL:          0 USELESS:          0
cpu0->cpu0_STLB AVERAGE MISS LATENCY: 909.3 cycles
cpu0->cpu0_L2C TOTAL        ACCESS:        953 HIT:         60 MISS:        893 MSHR_MERGE:          0
cpu0->cpu0_L2C LOAD         ACCESS:        523 HIT:         24 MISS:        499 MSHR_MERGE:          0
cpu0->cpu0_L2C RFO          ACCESS:        270 HIT:          4 MISS:        266 MSHR_MERGE:          0
cpu0->cpu0_L2C PREFETCH     ACCESS:          0 HIT:          0 MISS:          0 MSHR_MERGE:          0
cpu0->cpu0_L2C WRITE        ACCESS:         32 HIT:         32 MISS:          0 MSHR_MERGE:          0
cpu0->cpu0_L2C TRANSLATION  ACCESS:        128 HIT:          0 MISS:        128 MSHR_MERGE:          0
cpu0->cpu0_L2C PREFETCH REQUESTED:          0 ISSUED:          0 USEFUL:          0 USELESS:          0
cpu0->cpu0_L2C AVERAGE MISS LATENCY: 203.8 cycles
cpu0->cpu0_L1I TOTAL        ACCESS:     227721 HIT:     227352 MISS:        369 MSHR_MERGE:         93
cpu0->cpu0_L1I LOAD         ACCESS:     227721 HIT:     227352 MISS:        369 MSHR_MERGE:         93
cpu0->cpu0_L1I RFO          ACCESS:          0 HIT:          0 MISS:          0 MSHR_MERGE:          0
cpu0->cpu0_L1I PREFETCH     ACCESS:          0 HIT:          0 MISS:          0 MSHR_MERGE:          0
cpu0->cpu0_L1I WRITE        ACCESS:          0 HIT:          0 MISS:          0 MSHR_MERGE:          0
cpu0->cpu0_L1I TRANSLATION  ACCESS:          0 HIT:          0 MISS:          0 MSHR_MERGE:          0
cpu0->cpu0_L1I PREFETCH REQUESTED:          0 ISSUED:          0 USEFUL:          0 USELESS:          0
cpu0->cpu0_L1I AVERAGE MISS LATENCY: 203.3 cycles
cpu0->cpu0_L1D TOTAL        ACCESS:    1808571 HIT:    1807218 MISS:       1353 MSHR_MERGE:        708
cpu0->cpu0_L1D LOAD         ACCESS:    1420967 HIT:    1420510 MISS:        457 MSHR_MERGE:        210
cpu0->cpu0_L1D RFO          ACCESS:          0 HIT:          0 MISS:          0 MSHR_MERGE:          0
cpu0->cpu0_L1D PREFETCH     ACCESS:          0 HIT:          0 MISS:          0 MSHR_MERGE:          0
cpu0->cpu0_L1D WRITE        ACCESS:     387464 HIT:     386699 MISS:        765 MSHR_MERGE:        495
cpu0->cpu0_L1D TRANSLATION  ACCESS:        140 HIT:          9 MISS:        131 MSHR_MERGE:          3
cpu0->cpu0_L1D PREFETCH REQUESTED:          0 ISSUED:          0 USEFUL:          0 USELESS:          0
cpu0->cpu0_L1D AVERAGE MISS LATENCY: 207.6 cycles
cpu0->cpu0_ITLB TOTAL        ACCESS:     189825 HIT:     189794 MISS:         31 MSHR_MERGE:         20
cpu0->cpu0_ITLB LOAD         ACCESS:     189825 HIT:     189794 MISS:         31 MSHR_MERGE:         20
cpu0->cpu0_ITLB RFO          ACCESS:          0 HIT:          0 MISS:          0 MSHR_MERGE:          0
cpu0->cpu0_ITLB PREFETCH     ACCESS:          0 HIT:          0 MISS:          0 MSHR_MERGE:          0
cpu0->cpu0_ITLB WRITE        ACCESS:          0 HIT:          0 MISS:          0 MSHR_MERGE:          0
cpu0->cpu0_ITLB TRANSLATION  ACCESS:          0 HIT:          0 MISS:          0 MSHR_MERGE:          0
cpu0->cpu0_ITLB PREFETCH REQUESTED:          0 ISSUED:          0 USEFUL:          0 USELESS:          0
cpu0->cpu0_ITLB AVERAGE MISS LATENCY: 729.5 cycles
cpu0->cpu0_DTLB TOTAL        ACCESS:    1777222 HIT:    1776745 MISS:        477 MSHR_MERGE:        251
cpu0->cpu0_DTLB LOAD         ACCESS:    1777222 HIT:    1776745 MISS:        477 MSHR_MERGE:        251
cpu0->cpu0_DTLB RFO          ACCESS:          0 HIT:          0 MISS:          0 MSHR_MERGE:          0
cpu0->cpu0_DTLB PREFETCH     ACCESS:          0 HIT:          0 MISS:          0 MSHR_MERGE:          0
cpu0->cpu0_DTLB WRITE        ACCESS:          0 HIT:          0 MISS:          0 MSHR_MERGE:          0
cpu0->cpu0_DTLB TRANSLATION  ACCESS:          0 HIT:          0 MISS:          0 MSHR_MERGE:          0
cpu0->cpu0_DTLB PREFETCH REQUESTED:          0 ISSUED:          0 USEFUL:          0 USELESS:          0
cpu0->cpu0_DTLB AVERAGE MISS LATENCY: 223.5 cycles
cpu0->LLC TOTAL        ACCESS:        893 HIT:          0 MISS:        893 MSHR_MERGE:          0
cpu0->LLC LOAD         ACCESS:        499 HIT:          0 MISS:        499 MSHR_MERGE:          0
cpu0->LLC RFO          ACCESS:        266 HIT:          0 MISS:        266 MSHR_MERGE:          0
cpu0->LLC PREFETCH     ACCESS:          0 HIT:          0 MISS:          0 MSHR_MERGE:          0
cpu0->LLC WRITE        ACCESS:          0 HIT:          0 MISS:          0 MSHR_MERGE:          0
cpu0->LLC TRANSLATION  ACCESS:        128 HIT:          0 MISS:        128 MSHR_MERGE:          0
cpu0->LLC PREFETCH REQUESTED:          0 ISSUED:          0 USEFUL:          0 USELESS:          0
cpu0->LLC AVERAGE MISS LATENCY: 187.8 cycles

DRAM Statistics

Channel 0 RQ ROW_BUFFER_HIT:          2
  ROW_BUFFER_MISS:        891
  AVG DBUS CONGESTED CYCLE: 2.921
Channel 0 WQ ROW_BUFFER_HIT:          0
  ROW_BUFFER_MISS:          0
  FULL:          0
Channel 0 REFRESHES ISSUED:        686
