[VMEM] WARNING: physical memory size is smaller than virtual memory size.

*** ChampSim Multicore Out-of-Order Simulator ***
Warmup Instructions: 2000000
Simulation Instructions: 10000000
Number of CPUs: 1
Page size: 4096

Off-chip DRAM Size: 16 GiB Channels: 1 Width: 64-bit Data Rate: 3205 MT/s
Warmup finished CPU 0 instructions: 2000000 cycles: 698960 cumulative IPC: 2.861 (Simulation time: 00 hr 00 min 06 sec)
Warmup complete CPU 0 instructions: 2000000 cycles: 698960 cumulative IPC: 2.861 (Simulation time: 00 hr 00 min 06 sec)
Heartbeat CPU 0 instructions: 10000001 cycles: 16729173 heartbeat IPC: 0.5978 cumulative IPC: 0.4991 (Simulation time: 00 hr 01 min 19 sec)
Simulation finished CPU 0 instructions: 10000000 cycles: 20001799 cumulative IPC: 0.5 (Simulation time: 00 hr 01 min 37 sec)
Simulation complete CPU 0 instructions: 10000000 cycles: 20001799 cumulative IPC: 0.5 (Simulation time: 00 hr 01 min 37 sec)

ChampSim completed all CPUs

=== Simulation ===
CPU 0 runs traces/623.xalancbmk_s-165B.champsimtrace.xz

Region of Interest Statistics

CPU 0 cumulative IPC: 0.5 instructions: 10000000 cycles: 20001799
CPU 0 Branch Prediction Accuracy: 96.51% MPKI: 9.719 Average ROB Occupancy at Mispredict: 59.14
Branch type MPKI
BRANCH_DIRECT_JUMP: 0
BRANCH_INDIRECT: 0
BRANCH_CONDITIONAL: 9.719
BRANCH_DIRECT_CALL: 0
BRANCH_INDIRECT_CALL: 0
BRANCH_RETURN: 0.0001

cpu0->cpu0_STLB TOTAL        ACCESS:       3389 HIT:       3374 MISS:         15 MSHR_MERGE:          0
cpu0->cpu0_STLB LOAD         ACCESS:       3389 HIT:       3374 MISS:         15 MSHR_MERGE:          0
cpu0->cpu0_STLB RFO          ACCESS:          0 HIT:          0 MISS:          0 MSHR_MERGE:          0
cpu0->cpu0_STLB PREFETCH     ACCESS:          0 HIT:          0 MISS:          0 MSHR_MERGE:          0
cpu0->cpu0_STLB WRITE        ACCESS:          0 HIT:          0 MISS:          0 MSHR_MERGE:          0
cpu0->cpu0_STLB TRANSLATION  ACCESS:          0 HIT:          0 MISS:          0 MSHR_MERGE:          0
cpu0->cpu0_STLB PREFETCH REQUESTED:          0 ISSUED:          0 USEFUL:          0 USELESS:          0
cpu0->cpu0_STLB AVERAGE MISS LATENCY: 800.3 cycles
cpu0->cpu0_L2C TOTAL        ACCESS:     190364 HIT:        144 MISS:     190220 MSHR_MERGE:          0
cpu0->cpu0_L2C LOAD         ACCESS:     190185 HIT:         53 MISS:     190132 MSHR_MERGE:          0
cpu0->cpu0_L2C RFO          ACCESS:         62 HIT:          0 MISS:         62 MSHR_MERGE:          0
cpu0->cpu0_L2C PREFETCH     ACCESS:          0 HIT:          0 MISS:          0 MSHR_MERGE:          0
cpu0->cpu0_L2C WRITE        ACCESS:         91 HIT:         91 MISS:          0 MSHR_MERGE:          0
cpu0->cpu0_L2C TRANSLATION  ACCESS:         26 HIT:          0 MISS:         26 MSHR_MERGE:          0
cpu0->cpu0_L2C PREFETCH REQUESTED:          0 ISSUED:          0 USEFUL:          0 USELESS:          0
cpu0->cpu0_L2C AVERAGE MISS LATENCY: 127.6 cycles
cpu0->cpu0_L1I TOTAL        ACCESS:         85 HIT:         85 MISS:          0 MSHR_MERGE:          0
cpu0->cpu0_L1I LOAD         ACCESS:         85 HIT:         85 MISS:          0 MSHR_MERGE:          0
cpu0->cpu0_L1I RFO          ACCESS:          0 HIT:          0 MISS:          0 MSHR_MERGE:          0
cpu0->cpu0_L1I PREFETCH     ACCESS:          0 HIT:          0 MISS:          0 MSHR_MERGE:          0
cpu0->cpu0_L1I WRITE        ACCESS:          0 HIT:          0 MISS:          0 MSHR_MERGE:          0
cpu0->cpu0_L1I TRANSLATION  ACCESS:          0 HIT:          0 MISS:          0 MSHR_MERGE:          0
cpu0->cpu0_L1I PREFETCH REQUESTED:          0 ISSUED:          0 USEFUL:          0 USELESS:          0
cpu0->cpu0_L1I AVERAGE MISS LATENCY: - cycles
cpu0->cpu0_L1D TOTAL        ACCESS:    2812780 HIT:    2169761 MISS:     643019 MSHR_MERGE:     452746
cpu0->cpu0_L1D LOAD         ACCESS:    2681302 HIT:    2038614 MISS:     642688 MSHR_MERGE:     452503
cpu0->cpu0_L1D RFO          ACCESS:          0 HIT:          0 MISS:          0 MSHR_MERGE:          0
cpu0->cpu0_L1D PREFETCH     ACCESS:          0 HIT:          0 MISS:          0 MSHR_MERGE:          0
cpu0->cpu0_L1D WRITE        ACCESS:     131448 HIT:     131145 MISS:        303 MSHR_MERGE:        241
cpu0->cpu0_L1D TRANSLATION  ACCESS:         30 HIT:          2 MISS:         28 MSHR_MERGE:          2
cpu0->cpu0_L1D PREFETCH REQUESTED:          0 ISSUED:          0 USEFUL:          0 USELESS:          0
cpu0->cpu0_L1D AVERAGE MISS LATENCY: 136.6 cycles
cpu0->cpu0_ITLB TOTAL        ACCESS:         69 HIT:         69 MISS:          0 MSHR_MERGE:          0
cpu0->cpu0_ITLB LOAD         ACCESS:         69 HIT:         69 MISS:          0 MSHR_MERGE:          0
cpu0->cpu0_ITLB RFO          ACCESS:          0 HIT:          0 MISS:          0 MSHR_MERGE:          0
cpu0->cpu0_ITLB PREFETCH     ACCESS:          0 HIT:          0 MISS:          0 MSHR_MERGE:          0
cpu0->cpu0_ITLB WRITE        ACCESS:          0 HIT:          0 MISS:          0 MSHR_MERGE:          0
cpu0->cpu0_ITLB TRANSLATION  ACCESS:          0 HIT:          0 MISS:          0 MSHR_MERGE:          0
cpu0->cpu0_ITLB PREFETCH REQUESTED:          0 ISSUED:          0 USEFUL:          0 USELESS:          0
cpu0->cpu0_ITLB AVERAGE MISS LATENCY: - cycles
cpu0->cpu0_DTLB TOTAL        ACCESS:    2794098 HIT:    2785898 MISS:       8200 MSHR_MERGE:       4811
cpu0->cpu0_DTLB LOAD         ACCESS:    2794098 HIT:    2785898 MISS:       8200 MSHR_MERGE:       4811
cpu0->cpu0_DTLB RFO          ACCESS:          0 HIT:          0 MISS:          0 MSHR_MERGE:          0
cpu0->cpu0_DTLB PREFETCH     ACCESS:          0 HIT:          0 MISS:          0 MSHR_MERGE:          0
cpu0->cpu0_DTLB WRITE        ACCESS:          0 HIT:          0 MISS:          0 MSHR_MERGE:          0
cpu0->cpu0_DTLB TRANSLATION  ACCESS:          0 HIT:          0 MISS:          0 MSHR_MERGE:          0
cpu0->cpu0_DTLB PREFETCH REQUESTED:          0 ISSUED:          0 USEFUL:          0 USELESS:          0
cpu0->cpu0_DTLB AVERAGE MISS LATENCY: 8.547 cycles
cpu0->LLC TOTAL        ACCESS:     190310 HIT:      54349 MISS:     135961 MSHR_MERGE:          0
cpu0->LLC LOAD         ACCESS:     190132 HIT:      54260 MISS:     135872 MSHR_MERGE:          0
cpu0->LLC RFO          ACCESS:         62 HIT:          0 MISS:         62 MSHR_MERGE:          0
cpu0->LLC PREFETCH     ACCESS:          0 HIT:          0 MISS:          0 MSHR_MERGE:          0
cpu0->LLC WRITE        ACCESS:         90 HIT:         89 MISS:          1 MSHR_MERGE:          0
cpu0->LLC TRANSLATION  ACCESS:         26 HIT:          0 MISS:         26 MSHR_MERGE:          0
cpu0->LLC PREFETCH REQUESTED:          0 ISSUED:          0 USEFUL:          0 USELESS:          0
cpu0->LLC AVERAGE MISS LATENCY: 156.5 cycles

DRAM Statistics

Channel 0 RQ ROW_BUFFER_HIT:      38201
  ROW_BUFFER_MISS:      97759
  AVG DBUS CONGESTED CYCLE: 2.97
Channel 0 WQ ROW_BUFFER_HIT:          8
  ROW_BUFFER_MISS:         18
  FULL:          0
Channel 0 REFRESHES ISSUED:       1667
