[VMEM] WARNING: physical memory size is smaller than virtual memory size.

*** ChampSim Multicore Out-of-Order Simulator ***
Warmup Instructions: 2000000
Simulation Instructions: 10000000
Number of CPUs: 1
Page size: 4096

Off-chip DRAM Size: 16 GiB Channels: 1 Width: 64-bit Data Rate: 3205 MT/s
Warmup finished CPU 0 instructions: 2000000 cycles: 612559 cumulative IPC: 3.265 (Simulation time: 00 hr 00 min 05 sec)
Warmup complete CPU 0 instructions: 2000000 cycles: 612559 cumulative IPC: 3.265 (Simulation time: 00 hr 00 min 05 sec)
Heartbeat CPU 0 instructions: 10000000 cycles: 9965610 heartbeat IPC: 1.003 cumulative IPC: 0.8553 (Simulation time: 00 hr 00 min 57 sec)
Simulation finished CPU 0 instructions: 10000000 cycles: 10661209 cumulative IPC: 0.938 (Simulation time: 00 hr 01 min 05 sec)
Simulation complete CPU 0 instructions: 10000000 cycles: 10661209 cumulative IPC: 0.938 (Simulation time: 00 hr 01 min 05 sec)

ChampSim completed all CPUs

=== Simulation ===
CPU 0 runs traces/627.cam4_s-490B.champsimtrace.xz

Region of Interest Statistics

CPU 0 cumulative IPC: 0.938 instructions: 10000000 cycles: 10661209
CPU 0 Branch Prediction Accuracy: 89.88% MPKI: 9.609 Average ROB Occupancy at Mispredict: 33.75
Branch type MPKI
BRANCH_DIRECT_JUMP: 0.0063
BRANCH_INDIRECT: 0.0001
BRANCH_CONDITIONAL: 9.586
BRANCH_DIRECT_CALL: 0.0084
BRANCH_INDIRECT_CALL: 0
BRANCH_RETURN: 0.0082

cpu0->cpu0_STLB TOTAL        ACCESS:       3292 HIT:       2715 MISS:        577 MSHR_MERGE:          0
cpu0->cpu0_STLB LOAD         ACCESS:       3292 HIT:       2715 MISS:        577 MSHR_MERGE:          0
cpu0->cpu0_STLB RFO          ACCESS:          0 HIT:          0 MISS:          0 MSHR_MERGE:          0
cpu0->cpu0_STLB PREFETCH     ACCESS:          0 HIT:          0 MISS:          0 MSHR_MERGE:          0
cpu0->cpu0_STLB WRITE        ACCESS:          0 HIT:          0 MISS:          0 MSHR_MERGE:          0
cpu0->cpu0_STLB TRANSLATION  ACCESS:          0 HIT:          0 MISS:          0 MSHR_MERGE:          0
cpu0->cpu0_STLB PREFETCH REQUESTED:          0 ISSUED:          0 USEFUL:          0 USELESS:          0
cpu0->cpu0_STLB AVERAGE MISS LATENCY: 715.9 cycles
cpu0->cpu0_L2C TOTAL        ACCESS:     267290 HIT:     130929 MISS:     136361 MSHR_MERGE:          0
cpu0->cpu0_L2C LOAD         ACCESS:     133290 HIT:      52145 MISS:      81145 MSHR_MERGE:          0
cpu0->cpu0_L2C RFO          ACCESS:      54611 HIT:        242 MISS:      54369 MSHR_MERGE:          0
cpu0->cpu0_L2C PREFETCH     ACCESS:          0 HIT:          0 MISS:          0 MSHR_MERGE:          0
cpu0->cpu0_L2C WRITE        ACCESS:      78653 HIT:      78539 MISS:        114 MSHR_MERGE:          0
cpu0->cpu0_L2C TRANSLATION  ACCESS:        736 HIT:          3 MISS:        733 MSHR_MERGE:          0
cpu0->cpu0_L2C PREFETCH REQUESTED:          0 ISSUED:          0 USEFUL:          0 USELESS:          0
cpu0->cpu0_L2C AVERAGE MISS LATENCY: 115.3 cycles
cpu0->cpu0_L1I TOTAL        ACCESS:     712439 HIT:     711880 MISS:        559 MSHR_MERGE:        200
cpu0->cpu0_L1I LOAD         ACCESS:     712439 HIT:     711880 MISS:        559 MSHR_MERGE:        200
cpu0->cpu0_L1I RFO          ACCESS:          0 HIT:          0 MISS:          0 MSHR_MERGE:          0
cpu0->cpu0_L1I PREFETCH     ACCESS:          0 HIT:          0 MISS:          0 MSHR_MERGE:          0
cpu0->cpu0_L1I WRITE        ACCESS:          0 HIT:          0 MISS:          0 MSHR_MERGE:          0
cpu0->cpu0_L1I TRANSLATION  ACCESS:          0 HIT:          0 MISS:          0 MSHR_MERGE:          0
cpu0->cpu0_L1I PREFETCH REQUESTED:          0 ISSUED:          0 USEFUL:          0 USELESS:          0
cpu0->cpu0_L1I AVERAGE MISS LATENCY: 222.6 cycles
cpu0->cpu0_L1D TOTAL        ACCESS:    2033835 HIT:    1463893 MISS:     569942 MSHR_MERGE:     381664
cpu0->cpu0_L1D LOAD         ACCESS:    1372190 HIT:    1076085 MISS:     296105 MSHR_MERGE:     163174
cpu0->cpu0_L1D RFO          ACCESS:          0 HIT:          0 MISS:          0 MSHR_MERGE:          0
cpu0->cpu0_L1D PREFETCH     ACCESS:          0 HIT:          0 MISS:          0 MSHR_MERGE:          0
cpu0->cpu0_L1D WRITE        ACCESS:     660482 HIT:     387384 MISS:     273098 MSHR_MERGE:     218487
cpu0->cpu0_L1D TRANSLATION  ACCESS:       1163 HIT:        424 MISS:        739 MSHR_MERGE:          3
cpu0->cpu0_L1D PREFETCH REQUESTED:          0 ISSUED:          0 USEFUL:          0 USELESS:          0
cpu0->cpu0_L1D AVERAGE MISS LATENCY: 91.84 cycles
cpu0->cpu0_ITLB TOTAL        ACCESS:     649045 HIT:     649034 MISS:         11 MSHR_MERGE:          7
cpu0->cpu0_ITLB LOAD         ACCESS:     649045 HIT:     649034 MISS:         11 MSHR_MERGE:          7
cpu0->cpu0_ITLB RFO          ACCESS:          0 HIT:          0 MISS:          0 MSHR_MERGE:          0
cpu0->cpu0_ITLB PREFETCH     ACCESS:          0 HIT:          0 MISS:          0 MSHR_MERGE:          0
cpu0->cpu0_ITLB WRITE        ACCESS:          0 HIT:          0 MISS:          0 MSHR_MERGE:          0
cpu0->cpu0_ITLB TRANSLATION  ACCESS:          0 HIT:          0 MISS:          0 MSHR_MERGE:          0
cpu0->cpu0_ITLB PREFETCH REQUESTED:          0 ISSUED:          0 USEFUL:          0 USELESS:          0
cpu0->cpu0_ITLB AVERAGE MISS LATENCY: 746.2 cycles
cpu0->cpu0_DTLB TOTAL        ACCESS:    1979621 HIT:    1971548 MISS:       8073 MSHR_MERGE:       4785
cpu0->cpu0_DTLB LOAD         ACCESS:    1979621 HIT:    1971548 MISS:       8073 MSHR_MERGE:       4785
cpu0->cpu0_DTLB RFO          ACCESS:          0 HIT:          0 MISS:          0 MSHR_MERGE:          0
cpu0->cpu0_DTLB PREFETCH     ACCESS:          0 HIT:          0 MISS:          0 MSHR_MERGE:          0
cpu0->cpu0_DTLB WRITE        ACCESS:          0 HIT:          0 MISS:          0 MSHR_MERGE:          0
cpu0->cpu0_DTLB TRANSLATION  ACCESS:          0 HIT:          0 MISS:          0 MSHR_MERGE:          0
cpu0->cpu0_DTLB PREFETCH REQUESTED:          0 ISSUED:          0 USEFUL:          0 USELESS:          0
cpu0->cpu0_DTLB AVERAGE MISS LATENCY: 129.9 cycles
cpu0->LLC TOTAL        ACCESS:     205606 HIT:     147262 MISS:      58344 MSHR_MERGE:          0
cpu0->LLC LOAD         ACCESS:      81145 HIT:      52708 MISS:      28437 MSHR_MERGE:          0
cpu0->LLC RFO          ACCESS:      54369 HIT:      25192 MISS:      29177 MSHR_MERGE:          0
cpu0->LLC PREFETCH     ACCESS:          0 HIT:          0 MISS:          0 MSHR_MERGE:          0
cpu0->LLC WRITE        ACCESS:      69359 HIT:      69359 MISS:          0 MSHR_MERGE:          0
cpu0->LLC TRANSLATION  ACCESS:        733 HIT:          3 MISS:        730 MSHR_MERGE:          0
cpu0->LLC PREFETCH REQUESTED:          0 ISSUED:          0 USEFUL:          0 USELESS:          0
cpu0->LLC AVERAGE MISS LATENCY: 233.3 cycles

DRAM Statistics

Channel 0 RQ ROW_BUFFER_HIT:       4499
  ROW_BUFFER_MISS:      53794
  AVG DBUS CONGESTED CYCLE: 10.86
Channel 0 WQ ROW_BUFFER_HIT:       7256
  ROW_BUFFER_MISS:      22581
  FULL:          0
Channel 0 REFRESHES ISSUED:        888
