[VMEM] WARNING: physical memory size is smaller than virtual memory size.

*** ChampSim Multicore Out-of-Order Simulator ***
Warmup Instructions: 2000000
Simulation Instructions: 10000000
Number of CPUs: 1
Page size: 4096

Off-chip DRAM Size: 16 GiB Channels: 1 Width: 64-bit Data Rate: 3205 MT/s
Warmup finished CPU 0 instructions: 2000004 cycles: 647620 cumulative IPC: 3.088 (Simulation time: 00 hr 00 min 05 sec)
Warmup complete CPU 0 instructions: 2000004 cycles: 647620 cumulative IPC: 3.088 (Simulation time: 00 hr 00 min 05 sec)
Heartbeat CPU 0 instructions: 10000002 cycles: 7109353 heartbeat IPC: 1.407 cumulative IPC: 1.238 (Simulation time: 00 hr 00 min 44 sec)
Simulation finished CPU 0 instructions: 10000004 cycles: 7975842 cumulative IPC: 1.254 (Simulation time: 00 hr 00 min 53 sec)
Simulation complete CPU 0 instructions: 10000004 cycles: 7975842 cumulative IPC: 1.254 (Simulation time: 00 hr 00 min 53 sec)

ChampSim completed all CPUs

=== Simulation ===
CPU 0 runs traces/628.pop2_s-17B.champsimtrace.xz

Region of Interest Statistics

CPU 0 cumulative IPC: 1.254 instructions: 10000004 cycles: 7975842
CPU 0 Branch Prediction Accuracy: 97.13% MPKI: 3.282 Average ROB Occupancy at Mispredict: 107.8
Branch type MPKI
BRANCH_DIRECT_JUMP: 0.0512
BRANCH_INDIRECT: 0.0016
BRANCH_CONDITIONAL: 3.229
BRANCH_DIRECT_CALL: 0
BRANCH_INDIRECT_CALL: 0
BRANCH_RETURN: 0.0001

cpu0->cpu0_STLB TOTAL        ACCESS:       8696 HIT:       8204 MISS:        492 MSHR_MERGE:          0
cpu0->cpu0_STLB LOAD         ACCESS:       8696 HIT:       8204 MISS:        492 MSHR_MERGE:          0
cpu0->cpu0_STLB RFO          ACCESS:          0 HIT:          0 MISS:          0 MSHR_MERGE:          0
cpu0->cpu0_STLB PREFETCH     ACCESS:          0 HIT:          0 MISS:          0 MSHR_MERGE:          0
cpu0->cpu0_STLB WRITE        ACCESS:          0 HIT:          0 MISS:          0 MSHR_MERGE:          0
cpu0->cpu0_STLB TRANSLATION  ACCESS:          0 HIT:          0 MISS:          0 MSHR_MERGE:          0
cpu0->cpu0_STLB PREFETCH REQUESTED:          0 ISSUED:          0 USEFUL:          0 USELESS:          0
cpu0->cpu0_STLB AVERAGE MISS LATENCY: 752.4 cycles
cpu0->cpu0_L2C TOTAL        ACCESS:     300894 HIT:     208842 MISS:      92052 MSHR_MERGE:          0
cpu0->cpu0_L2C LOAD         ACCESS:     164093 HIT:      94952 MISS:      69141 MSHR_MERGE:          0
cpu0->cpu0_L2C RFO          ACCESS:      54511 HIT:      32586 MISS:      21925 MSHR_MERGE:          0
cpu0->cpu0_L2C PREFETCH     ACCESS:          0 HIT:          0 MISS:          0 MSHR_MERGE:          0
cpu0->cpu0_L2C WRITE        ACCESS:      81253 HIT:      81250 MISS:          3 MSHR_MERGE:          0
cpu0->cpu0_L2C TRANSLATION  ACCESS:       1037 HIT:         54 MISS:        983 MSHR_MERGE:          0
cpu0->cpu0_L2C PREFETCH REQUESTED:          0 ISSUED:          0 USEFUL:          0 USELESS:          0
cpu0->cpu0_L2C AVERAGE MISS LATENCY: 77.91 cycles
cpu0->cpu0_L1I TOTAL        ACCESS:     738737 HIT:     716825 MISS:      21912 MSHR_MERGE:      10115
cpu0->cpu0_L1I LOAD         ACCESS:     738737 HIT:     716825 MISS:      21912 MSHR_MERGE:      10115
cpu0->cpu0_L1I RFO          ACCESS:          0 HIT:          0 MISS:          0 MSHR_MERGE:          0
cpu0->cpu0_L1I PREFETCH     ACCESS:          0 HIT:          0 MISS:          0 MSHR_MERGE:          0
cpu0->cpu0_L1I WRITE        ACCESS:          0 HIT:          0 MISS:          0 MSHR_MERGE:          0
cpu0->cpu0_L1I TRANSLATION  ACCESS:          0 HIT:          0 MISS:          0 MSHR_MERGE:          0
cpu0->cpu0_L1I PREFETCH REQUESTED:          0 ISSUED:          0 USEFUL:          0 USELESS:          0
cpu0->cpu0_L1I AVERAGE MISS LATENCY: 21.17 cycles
cpu0->cpu0_L1D TOTAL        ACCESS:    2616021 HIT:    2145258 MISS:     470763 MSHR_MERGE:     262913
cpu0->cpu0_L1D LOAD         ACCESS:    1857489 HIT:    1568863 MISS:     288626 MSHR_MERGE:     136328
cpu0->cpu0_L1D RFO          ACCESS:          0 HIT:          0 MISS:          0 MSHR_MERGE:          0
cpu0->cpu0_L1D PREFETCH     ACCESS:          0 HIT:          0 MISS:          0 MSHR_MERGE:          0
cpu0->cpu0_L1D WRITE        ACCESS:     757388 HIT:     576323 MISS:     181065 MSHR_MERGE:     126550
cpu0->cpu0_L1D TRANSLATION  ACCESS:       1144 HIT:         72 MISS:       1072 MSHR_MERGE:         35
cpu0->cpu0_L1D PREFETCH REQUESTED:          0 ISSUED:          0 USEFUL:          0 USELESS:          0
cpu0->cpu0_L1D AVERAGE MISS LATENCY: 42.21 cycles
cpu0->cpu0_ITLB TOTAL        ACCESS:     601264 HIT:     600031 MISS:       1233 MSHR_MERGE:        740
cpu0->cpu0_ITLB LOAD         ACCESS:     601264 HIT:     600031 MISS:       1233 MSHR_MERGE:        740
cpu0->cpu0_ITLB RFO          ACCESS:          0 HIT:          0 MISS:          0 MSHR_MERGE:          0
cpu0->cpu0_ITLB PREFETCH     ACCESS:          0 HIT:          0 MISS:          0 MSHR_MERGE:          0
cpu0->cpu0_ITLB WRITE        ACCESS:          0 HIT:          0 MISS:          0 MSHR_MERGE:          0
cpu0->cpu0_ITLB TRANSLATION  ACCESS:          0 HIT:          0 MISS:          0 MSHR_MERGE:          0
cpu0->cpu0_ITLB PREFETCH REQUESTED:          0 ISSUED:          0 USEFUL:          0 USELESS:          0
cpu0->cpu0_ITLB AVERAGE MISS LATENCY: 5.004 cycles
cpu0->cpu0_DTLB TOTAL        ACCESS:    2514511 HIT:    2500420 MISS:      14091 MSHR_MERGE:       5888
cpu0->cpu0_DTLB LOAD         ACCESS:    2514511 HIT:    2500420 MISS:      14091 MSHR_MERGE:       5888
cpu0->cpu0_DTLB RFO          ACCESS:          0 HIT:          0 MISS:          0 MSHR_MERGE:          0
cpu0->cpu0_DTLB PREFETCH     ACCESS:          0 HIT:          0 MISS:          0 MSHR_MERGE:          0
cpu0->cpu0_DTLB WRITE        ACCESS:          0 HIT:          0 MISS:          0 MSHR_MERGE:          0
cpu0->cpu0_DTLB TRANSLATION  ACCESS:          0 HIT:          0 MISS:          0 MSHR_MERGE:          0
cpu0->cpu0_DTLB PREFETCH REQUESTED:          0 ISSUED:          0 USEFUL:          0 USELESS:          0
cpu0->cpu0_DTLB AVERAGE MISS LATENCY: 50.19 cycles
cpu0->LLC TOTAL        ACCESS:     127113 HIT:      96447 MISS:      30666 MSHR_MERGE:          0
cpu0->LLC LOAD         ACCESS:      69141 HIT:      41439 MISS:      27702 MSHR_MERGE:          0
cpu0->LLC RFO          ACCESS:      21925 HIT:      19759 MISS:       2166 MSHR_MERGE:          0
cpu0->LLC PREFETCH     ACCESS:          0 HIT:          0 MISS:          0 MSHR_MERGE:          0
cpu0->LLC WRITE        ACCESS:      35064 HIT:      34986 MISS:         78 MSHR_MERGE:          0
cpu0->LLC TRANSLATION  ACCESS:        983 HIT:        263 MISS:        720 MSHR_MERGE:          0
cpu0->LLC PREFETCH REQUESTED:          0 ISSUED:          0 USEFUL:          0 USELESS:          0
cpu0->LLC AVERAGE MISS LATENCY: 187.8 cycles

DRAM Statistics

Channel 0 RQ ROW_BUFFER_HIT:       1018
  ROW_BUFFER_MISS:      29569
  AVG DBUS CONGESTED CYCLE: 14.91
Channel 0 WQ ROW_BUFFER_HIT:       1001
  ROW_BUFFER_MISS:       2499
  FULL:          0
Channel 0 REFRESHES ISSUED:        665
