[VMEM] WARNING: physical memory size is smaller than virtual memory size.

*** ChampSim Multicore Out-of-Order Simulator ***
Warmup Instructions: 2000000
Simulation Instructions: 10000000
Number of CPUs: 1
Page size: 4096

Off-chip DRAM Size: 16 GiB Channels: 1 Width: 64-bit Data Rate: 3205 MT/s
Warmup finished CPU 0 instructions: 2000000 cycles: 789907 cumulative IPC: 2.532 (Simulation time: 00 hr 00 min 07 sec)
Warmup complete CPU 0 instructions: 2000000 cycles: 789907 cumulative IPC: 2.532 (Simulation time: 00 hr 00 min 07 sec)
Heartbeat CPU 0 instructions: 10000003 cycles: 9407783 heartbeat IPC: 1.063 cumulative IPC: 0.9283 (Simulation time: 00 hr 00 min 52 sec)
Simulation finished CPU 0 instructions: 10000000 cycles: 10639875 cumulative IPC: 0.9399 (Simulation time: 00 hr 01 min 03 sec)
Simulation complete CPU 0 instructions: 10000000 cycles: 10639875 cumulative IPC: 0.9399 (Simulation time: 00 hr 01 min 03 sec)

ChampSim completed all CPUs

=== Simulation ===
CPU 0 runs traces/631.deepsjeng_s-928B.champsimtrace.xz

Region of Interest Statistics

CPU 0 cumulative IPC: 0.9399 instructions: 10000000 cycles: 10639875
CPU 0 Branch Prediction Accuracy: 85.64% MPKI: 21.52 Average ROB Occupancy at Mispredict: 19.52
Branch type MPKI
BRANCH_DIRECT_JUMP: 0.0279
BRANCH_INDIRECT: 0.0106
BRANCH_CONDITIONAL: 21.02
BRANCH_DIRECT_CALL: 0.024
BRANCH_INDIRECT_CALL: 0
BRANCH_RETURN: 0.4437

cpu0->cpu0_STLB TOTAL        ACCESS:       2165 HIT:        744 MISS:       1421 MSHR_MERGE:          0
cpu0->cpu0_STLB LOAD         ACCESS:       2165 HIT:        744 MISS:       1421 MSHR_MERGE:          0
cpu0->cpu0_STLB RFO          ACCESS:          0 HIT:          0 MISS:          0 MSHR_MERGE:          0
cpu0->cpu0_STLB PREFETCH     ACCESS:          0 HIT:          0 MISS:          0 MSHR_MERGE:          0
cpu0->cpu0_STLB WRITE        ACCESS:          0 HIT:          0 MISS:          0 MSHR_MERGE:          0
cpu0->cpu0_STLB TRANSLATION  ACCESS:          0 HIT:          0 MISS:          0 MSHR_MERGE:          0
cpu0->cpu0_STLB PREFETCH REQUESTED:          0 ISSUED:          0 USEFUL:          0 USELESS:          0
cpu0->cpu0_STLB AVERAGE MISS LATENCY: 1031 cycles
cpu0->cpu0_L2C TOTAL        ACCESS:      25077 HIT:      18529 MISS:       6548 MSHR_MERGE:          0
cpu0->cpu0_L2C LOAD         ACCESS:      13371 HIT:      10934 MISS:       2437 MSHR_MERGE:          0
cpu0->cpu0_L2C RFO          ACCESS:       2788 HIT:       2409 MISS:        379 MSHR_MERGE:          0
cpu0->cpu0_L2C PREFETCH     ACCESS:          0 HIT:          0 MISS:          0 MSHR_MERGE:          0
cpu0->cpu0_L2C WRITE        ACCESS:       4752 HIT:       4748 MISS:          4 MSHR_MERGE:          0
cpu0->cpu0_L2C TRANSLATION  ACCESS:       4166 HIT:        438 MISS:       3728 MSHR_MERGE:          0
cpu0->cpu0_L2C PREFETCH REQUESTED:          0 ISSUED:          0 USEFUL:          0 USELESS:          0
cpu0->cpu0_L2C AVERAGE MISS LATENCY: 173.9 cycles
cpu0->cpu0_L1I TOTAL        ACCESS:    1084606 HIT:    1074344 MISS:      10262 MSHR_MERGE:       1926
cpu0->cpu0_L1I LOAD         ACCESS:    1084606 HIT:    1074344 MISS:      10262 MSHR_MERGE:       1926
cpu0->cpu0_L1I RFO          ACCESS:          0 HIT:          0 MISS:          0 MSHR_MERGE:          0
cpu0->cpu0_L1I PREFETCH     ACCESS:          0 HIT:          0 MISS:          0 MSHR_MERGE:          0
cpu0->cpu0_L1I WRITE        ACCESS:          0 HIT:          0 MISS:          0 MSHR_MERGE:          0
cpu0->cpu0_L1I TRANSLATION  ACCESS:          0 HIT:          0 MISS:          0 MSHR_MERGE:          0
cpu0->cpu0_L1I PREFETCH REQUESTED:          0 ISSUED:          0 USEFUL:          0 USELESS:          0
cpu0->cpu0_L1I AVERAGE MISS LATENCY: 7.758 cycles
cpu0->cpu0_L1D TOTAL        ACCESS:    3141728 HIT:    3121913 MISS:      19815 MSHR_MERGE:       7826
cpu0->cpu0_L1D LOAD         ACCESS:    1928991 HIT:    1920763 MISS:       8228 MSHR_MERGE:       3193
cpu0->cpu0_L1D RFO          ACCESS:          0 HIT:          0 MISS:          0 MSHR_MERGE:          0
cpu0->cpu0_L1D PREFETCH     ACCESS:          0 HIT:          0 MISS:          0 MSHR_MERGE:          0
cpu0->cpu0_L1D WRITE        ACCESS:    1208469 HIT:    1201059 MISS:       7410 MSHR_MERGE:       4622
cpu0->cpu0_L1D TRANSLATION  ACCESS:       4268 HIT:         91 MISS:       4177 MSHR_MERGE:         11
cpu0->cpu0_L1D PREFETCH REQUESTED:          0 ISSUED:          0 USEFUL:          0 USELESS:          0
cpu0->cpu0_L1D AVERAGE MISS LATENCY: 103.1 cycles
cpu0->cpu0_ITLB TOTAL        ACCESS:     930186 HIT:     930186 MISS:          0 MSHR_MERGE:          0
cpu0->cpu0_ITLB LOAD         ACCESS:     930186 HIT:     930186 MISS:          0 MSHR_MERGE:          0
cpu0->cpu0_ITLB RFO          ACCESS:          0 HIT:          0 MISS:          0 MSHR_MERGE:          0
cpu0->cpu0_ITLB PREFETCH     ACCESS:          0 HIT:          0 MISS:          0 MSHR_MERGE:          0
cpu0->cpu0_ITLB WRITE        ACCESS:          0 HIT:          0 MISS:          0 MSHR_MERGE:          0
cpu0->cpu0_ITLB TRANSLATION  ACCESS:          0 HIT:          0 MISS:          0 MSHR_MERGE:          0
cpu0->cpu0_ITLB PREFETCH REQUESTED:          0 ISSUED:          0 USEFUL:          0 USELESS:          0
cpu0->cpu0_ITLB AVERAGE MISS LATENCY: - cycles
cpu0->cpu0_DTLB TOTAL        ACCESS:    2972548 HIT:    2967186 MISS:       5362 MSHR_MERGE:       3197
cpu0->cpu0_DTLB LOAD         ACCESS:    2972548 HIT:    2967186 MISS:       5362 MSHR_MERGE:       3197
cpu0->cpu0_DTLB RFO          ACCESS:          0 HIT:          0 MISS:          0 MSHR_MERGE:          0
cpu0->cpu0_DTLB PREFETCH     ACCESS:          0 HIT:          0 MISS:          0 MSHR_MERGE:          0
cpu0->cpu0_DTLB WRITE        ACCESS:          0 HIT:          0 MISS:          0 MSHR_MERGE:          0
cpu0->cpu0_DTLB TRANSLATION  ACCESS:          0 HIT:          0 MISS:          0 MSHR_MERGE:          0
cpu0->cpu0_DTLB PREFETCH REQUESTED:          0 ISSUED:          0 USEFUL:          0 USELESS:          0
cpu0->cpu0_DTLB AVERAGE MISS LATENCY: 682.3 cycles
cpu0->LLC TOTAL        ACCESS:       7133 HIT:        687 MISS:       6446 MSHR_MERGE:          0
cpu0->LLC LOAD         ACCESS:       2437 HIT:         43 MISS:       2394 MSHR_MERGE:          0
cpu0->LLC RFO          ACCESS:        379 HIT:         11 MISS:        368 MSHR_MERGE:          0
cpu0->LLC PREFETCH     ACCESS:          0 HIT:          0 MISS:          0 MSHR_MERGE:          0
cpu0->LLC WRITE        ACCESS:        589 HIT:        589 MISS:          0 MSHR_MERGE:          0
cpu0->LLC TRANSLATION  ACCESS:       3728 HIT:         44 MISS:       3684 MSHR_MERGE:          0
cpu0->LLC PREFETCH REQUESTED:          0 ISSUED:          0 USEFUL:          0 USELESS:          0
cpu0->LLC AVERAGE MISS LATENCY: 160.5 cycles

DRAM Statistics

Channel 0 RQ ROW_BUFFER_HIT:         23
  ROW_BUFFER_MISS:       6423
  AVG DBUS CONGESTED CYCLE: 2.963
Channel 0 WQ ROW_BUFFER_HIT:          0
  ROW_BUFFER_MISS:          0
  FULL:          0
Channel 0 REFRESHES ISSUED:        887
