[VMEM] WARNING: physical memory size is smaller than virtual memory size.

*** ChampSim Multicore Out-of-Order Simulator ***
Warmup Instructions: 2000000
Simulation Instructions: 10000000
Number of CPUs: 1
Page size: 4096

Off-chip DRAM Size: 16 GiB Channels: 1 Width: 64-bit Data Rate: 3205 MT/s
Warmup finished CPU 0 instructions: 2000001 cycles: 569335 cumulative IPC: 3.513 (Simulation time: 00 hr 00 min 05 sec)
Warmup complete CPU 0 instructions: 2000001 cycles: 569335 cumulative IPC: 3.513 (Simulation time: 00 hr 00 min 05 sec)
Heartbeat CPU 0 instructions: 10000001 cycles: 8872734 heartbeat IPC: 1.127 cumulative IPC: 0.9635 (Simulation time: 00 hr 00 min 47 sec)
Simulation finished CPU 0 instructions: 10000001 cycles: 11305595 cumulative IPC: 0.8845 (Simulation time: 00 hr 01 min 02 sec)
Simulation complete CPU 0 instructions: 10000001 cycles: 11305595 cumulative IPC: 0.8845 (Simulation time: 00 hr 01 min 02 sec)

ChampSim completed all CPUs

=== Simulation ===
CPU 0 runs traces/641.leela_s-149B.champsimtrace.xz

Region of Interest Statistics

CPU 0 cumulative IPC: 0.8845 instructions: 10000001 cycles: 11305595
CPU 0 Branch Prediction Accuracy: 85.6% MPKI: 23.75 Average ROB Occupancy at Mispredict: 18
Branch type MPKI
BRANCH_DIRECT_JUMP: 0.1117
BRANCH_INDIRECT: 0.0064
BRANCH_CONDITIONAL: 23.58
BRANCH_DIRECT_CALL: 0.0127
BRANCH_INDIRECT_CALL: 0.0034
BRANCH_RETURN: 0.0393

cpu0->cpu0_STLB TOTAL        ACCESS:       6540 HIT:       6253 MISS:        287 MSHR_MERGE:          0
cpu0->cpu0_STLB LOAD         ACCESS:       6540 HIT:       6253 MISS:        287 MSHR_MERGE:          0
cpu0->cpu0_STLB RFO          ACCESS:          0 HIT:          0 MISS:          0 MSHR_MERGE:          0
cpu0->cpu0_STLB PREFETCH     ACCESS:          0 HIT:          0 MISS:          0 MSHR_MERGE:          0
cpu0->cpu0_STLB WRITE        ACCESS:          0 HIT:          0 MISS:          0 MSHR_MERGE:          0
cpu0->cpu0_STLB TRANSLATION  ACCESS:          0 HIT:          0 MISS:          0 MSHR_MERGE:          0
cpu0->cpu0_STLB PREFETCH REQUESTED:          0 ISSUED:          0 USEFUL:          0 USELESS:          0
cpu0->cpu0_STLB AVERAGE MISS LATENCY: 731.4 cycles
cpu0->cpu0_L2C TOTAL        ACCESS:      79380 HIT:      66664 MISS:      12716 MSHR_MERGE:          0
cpu0->cpu0_L2C LOAD         ACCESS:      41717 HIT:      36175 MISS:       5542 MSHR_MERGE:          0
cpu0->cpu0_L2C RFO          ACCESS:      14457 HIT:       7734 MISS:       6723 MSHR_MERGE:          0
cpu0->cpu0_L2C PREFETCH     ACCESS:          0 HIT:          0 MISS:          0 MSHR_MERGE:          0
cpu0->cpu0_L2C WRITE        ACCESS:      22757 HIT:      22753 MISS:          4 MSHR_MERGE:          0
cpu0->cpu0_L2C TRANSLATION  ACCESS:        449 HIT:          2 MISS:        447 MSHR_MERGE:          0
cpu0->cpu0_L2C PREFETCH REQUESTED:          0 ISSUED:          0 USEFUL:          0 USELESS:          0
cpu0->cpu0_L2C AVERAGE MISS LATENCY: 165.2 cycles
cpu0->cpu0_L1I TOTAL        ACCESS:     925868 HIT:     921968 MISS:       3900 MSHR_MERGE:       1157
cpu0->cpu0_L1I LOAD         ACCESS:     925868 HIT:     921968 MISS:       3900 MSHR_MERGE:       1157
cpu0->cpu0_L1I RFO          ACCESS:          0 HIT:          0 MISS:          0 MSHR_MERGE:          0
cpu0->cpu0_L1I PREFETCH     ACCESS:          0 HIT:          0 MISS:          0 MSHR_MERGE:          0
cpu0->cpu0_L1I WRITE        ACCESS:          0 HIT:          0 MISS:          0 MSHR_MERGE:          0
cpu0->cpu0_L1I TRANSLATION  ACCESS:          0 HIT:          0 MISS:          0 MSHR_MERGE:          0
cpu0->cpu0_L1I PREFETCH REQUESTED:          0 ISSUED:          0 USEFUL:          0 USELESS:          0
cpu0->cpu0_L1I AVERAGE MISS LATENCY: 27.77 cycles
cpu0->cpu0_L1D TOTAL        ACCESS:    2916938 HIT:    2802569 MISS:     114369 MSHR_MERGE:      60489
cpu0->cpu0_L1D LOAD         ACCESS:    1760507 HIT:    1712903 MISS:      47604 MSHR_MERGE:       8630
cpu0->cpu0_L1D RFO          ACCESS:          0 HIT:          0 MISS:          0 MSHR_MERGE:          0
cpu0->cpu0_L1D PREFETCH     ACCESS:          0 HIT:          0 MISS:          0 MSHR_MERGE:          0
cpu0->cpu0_L1D WRITE        ACCESS:    1155857 HIT:    1089541 MISS:      66316 MSHR_MERGE:      51859
cpu0->cpu0_L1D TRANSLATION  ACCESS:        574 HIT:        125 MISS:        449 MSHR_MERGE:          0
cpu0->cpu0_L1D PREFETCH REQUESTED:          0 ISSUED:          0 USEFUL:          0 USELESS:          0
cpu0->cpu0_L1D AVERAGE MISS LATENCY: 46.17 cycles
cpu0->cpu0_ITLB TOTAL        ACCESS:     820055 HIT:     819970 MISS:         85 MSHR_MERGE:         40
cpu0->cpu0_ITLB LOAD         ACCESS:     820055 HIT:     819970 MISS:         85 MSHR_MERGE:         40
cpu0->cpu0_ITLB RFO          ACCESS:          0 HIT:          0 MISS:          0 MSHR_MERGE:          0
cpu0->cpu0_ITLB PREFETCH     ACCESS:          0 HIT:          0 MISS:          0 MSHR_MERGE:          0
cpu0->cpu0_ITLB WRITE        ACCESS:          0 HIT:          0 MISS:          0 MSHR_MERGE:          0
cpu0->cpu0_ITLB TRANSLATION  ACCESS:          0 HIT:          0 MISS:          0 MSHR_MERGE:          0
cpu0->cpu0_ITLB PREFETCH REQUESTED:          0 ISSUED:          0 USEFUL:          0 USELESS:          0
cpu0->cpu0_ITLB AVERAGE MISS LATENCY: 433 cycles
cpu0->cpu0_DTLB TOTAL        ACCESS:    2776157 HIT:    2766513 MISS:       9644 MSHR_MERGE:       3149
cpu0->cpu0_DTLB LOAD         ACCESS:    2776157 HIT:    2766513 MISS:       9644 MSHR_MERGE:       3149
cpu0->cpu0_DTLB RFO          ACCESS:          0 HIT:          0 MISS:          0 MSHR_MERGE:          0
cpu0->cpu0_DTLB PREFETCH     ACCESS:          0 HIT:          0 MISS:          0 MSHR_MERGE:          0
cpu0->cpu0_DTLB WRITE        ACCESS:          0 HIT:          0 MISS:          0 MSHR_MERGE:          0
cpu0->cpu0_DTLB TRANSLATION  ACCESS:          0 HIT:          0 MISS:          0 MSHR_MERGE:          0
cpu0->cpu0_DTLB PREFETCH REQUESTED:          0 ISSUED:          0 USEFUL:          0 USELESS:          0
cpu0->cpu0_DTLB AVERAGE MISS LATENCY: 34.41 cycles
cpu0->LLC TOTAL        ACCESS:      15308 HIT:       4338 MISS:      10970 MSHR_MERGE:          0
cpu0->LLC LOAD         ACCESS:       5542 HIT:       1706 MISS:       3836 MSHR_MERGE:          0
cpu0->LLC RFO          ACCESS:       6723 HIT:         34 MISS:       6689 MSHR_MERGE:          0
cpu0->LLC PREFETCH     ACCESS:          0 HIT:          0 MISS:          0 MSHR_MERGE:          0
cpu0->LLC WRITE        ACCESS:       2596 HIT:       2596 MISS:          0 MSHR_MERGE:          0
cpu0->LLC TRANSLATION  ACCESS:        447 HIT:          2 MISS:        445 MSHR_MERGE:          0
cpu0->LLC PREFETCH REQUESTED:          0 ISSUED:          0 USEFUL:          0 USELESS:          0
cpu0->LLC AVERAGE MISS LATENCY: 173.1 cycles

DRAM Statistics

Channel 0 RQ ROW_BUFFER_HIT:       1656
  ROW_BUFFER_MISS:       9314
  AVG DBUS CONGESTED CYCLE: 2.773
Channel 0 WQ ROW_BUFFER_HIT:          0
  ROW_BUFFER_MISS:          0
  FULL:          0
Channel 0 REFRESHES ISSUED:        942
