[VMEM] WARNING: physical memory size is smaller than virtual memory size.

*** ChampSim Multicore Out-of-Order Simulator ***
Warmup Instructions: 2000000
Simulation Instructions: 10000000
Number of CPUs: 1
Page size: 4096

Off-chip DRAM Size: 16 GiB Channels: 1 Width: 64-bit Data Rate: 3205 MT/s
Warmup finished CPU 0 instructions: 2000000 cycles: 542496 cumulative IPC: 3.687 (Simulation time: 00 hr 00 min 05 sec)
Warmup complete CPU 0 instructions: 2000000 cycles: 542496 cumulative IPC: 3.687 (Simulation time: 00 hr 00 min 05 sec)
Heartbeat CPU 0 instructions: 10000001 cycles: 5000655 heartbeat IPC: 2 cumulative IPC: 1.794 (Simulation time: 00 hr 00 min 32 sec)
Simulation finished CPU 0 instructions: 10000000 cycles: 5605209 cumulative IPC: 1.784 (Simulation time: 00 hr 00 min 39 sec)
Simulation complete CPU 0 instructions: 10000000 cycles: 5605209 cumulative IPC: 1.784 (Simulation time: 00 hr 00 min 39 sec)

ChampSim completed all CPUs

=== Simulation ===
CPU 0 runs traces/644.nab_s-12459B.champsimtrace.xz

Region of Interest Statistics

CPU 0 cumulative IPC: 1.784 instructions: 10000000 cycles: 5605209
CPU 0 Branch Prediction Accuracy: 95.03% MPKI: 7.147 Average ROB Occupancy at Mispredict: 71.83
Branch type MPKI
BRANCH_DIRECT_JUMP: 0.3178
BRANCH_INDIRECT: 0
BRANCH_CONDITIONAL: 6.829
BRANCH_DIRECT_CALL: 0
BRANCH_INDIRECT_CALL: 0
BRANCH_RETURN: 0

cpu0->cpu0_STLB TOTAL        ACCESS:       2121 HIT:       2090 MISS:         31 MSHR_MERGE:          0
cpu0->cpu0_STLB LOAD         ACCESS:       2121 HIT:       2090 MISS:         31 MSHR_MERGE:          0
cpu0->cpu0_STLB RFO          ACCESS:          0 HIT:          0 MISS:          0 MSHR_MERGE:          0
cpu0->cpu0_STLB PREFETCH     ACCESS:          0 HIT:          0 MISS:          0 MSHR_MERGE:          0
cpu0->cpu0_STLB WRITE        ACCESS:          0 HIT:          0 MISS:          0 MSHR_MERGE:          0
cpu0->cpu0_STLB TRANSLATION  ACCESS:          0 HIT:          0 MISS:          0 MSHR_MERGE:          0
cpu0->cpu0_STLB PREFETCH REQUESTED:          0 ISSUED:          0 USEFUL:          0 USELESS:          0
cpu0->cpu0_STLB AVERAGE MISS LATENCY: 662.6 cycles
cpu0->cpu0_L2C TOTAL        ACCESS:      63128 HIT:      55591 MISS:       7537 MSHR_MERGE:          0
cpu0->cpu0_L2C LOAD         ACCESS:      54911 HIT:      49008 MISS:       5903 MSHR_MERGE:          0
cpu0->cpu0_L2C RFO          ACCESS:       3288 HIT:       1696 MISS:       1592 MSHR_MERGE:          0
cpu0->cpu0_L2C PREFETCH     ACCESS:          0 HIT:          0 MISS:          0 MSHR_MERGE:          0
cpu0->cpu0_L2C WRITE        ACCESS:       4881 HIT:       4881 MISS:          0 MSHR_MERGE:          0
cpu0->cpu0_L2C TRANSLATION  ACCESS:         48 HIT:          6 MISS:         42 MSHR_MERGE:          0
cpu0->cpu0_L2C PREFETCH REQUESTED:          0 ISSUED:          0 USEFUL:          0 USELESS:          0
cpu0->cpu0_L2C AVERAGE MISS LATENCY: 61.09 cycles
cpu0->cpu0_L1I TOTAL        ACCESS:      43210 HIT:      43210 MISS:          0 MSHR_MERGE:          0
cpu0->cpu0_L1I LOAD         ACCESS:      43210 HIT:      43210 MISS:          0 MSHR_MERGE:          0
cpu0->cpu0_L1I RFO          ACCESS:          0 HIT:          0 MISS:          0 MSHR_MERGE:          0
cpu0->cpu0_L1I PREFETCH     ACCESS:          0 HIT:          0 MISS:          0 MSHR_MERGE:          0
cpu0->cpu0_L1I WRITE        ACCESS:          0 HIT:          0 MISS:          0 MSHR_MERGE:          0
cpu0->cpu0_L1I TRANSLATION  ACCESS:          0 HIT:          0 MISS:          0 MSHR_MERGE:          0
cpu0->cpu0_L1I PREFETCH REQUESTED:          0 ISSUED:          0 USEFUL:          0 USELESS:          0
cpu0->cpu0_L1I AVERAGE MISS LATENCY: - cycles
cpu0->cpu0_L1D TOTAL        ACCESS:    2633608 HIT:    2535382 MISS:      98226 MSHR_MERGE:      39979
cpu0->cpu0_L1D LOAD         ACCESS:    1653661 HIT:    1582999 MISS:      70662 MSHR_MERGE:      15751
cpu0->cpu0_L1D RFO          ACCESS:          0 HIT:          0 MISS:          0 MSHR_MERGE:          0
cpu0->cpu0_L1D PREFETCH     ACCESS:          0 HIT:          0 MISS:          0 MSHR_MERGE:          0
cpu0->cpu0_L1D WRITE        ACCESS:     979885 HIT:     952369 MISS:      27516 MSHR_MERGE:      24228
cpu0->cpu0_L1D TRANSLATION  ACCESS:         62 HIT:         14 MISS:         48 MSHR_MERGE:          0
cpu0->cpu0_L1D PREFETCH REQUESTED:          0 ISSUED:          0 USEFUL:          0 USELESS:          0
cpu0->cpu0_L1D AVERAGE MISS LATENCY: 16.04 cycles
cpu0->cpu0_ITLB TOTAL        ACCESS:      35485 HIT:      35485 MISS:          0 MSHR_MERGE:          0
cpu0->cpu0_ITLB LOAD         ACCESS:      35485 HIT:      35485 MISS:          0 MSHR_MERGE:          0
cpu0->cpu0_ITLB RFO          ACCESS:          0 HIT:          0 MISS:          0 MSHR_MERGE:          0
cpu0->cpu0_ITLB PREFETCH     ACCESS:          0 HIT:          0 MISS:          0 MSHR_MERGE:          0
cpu0->cpu0_ITLB WRITE        ACCESS:          0 HIT:          0 MISS:          0 MSHR_MERGE:          0
cpu0->cpu0_ITLB TRANSLATION  ACCESS:          0 HIT:          0 MISS:          0 MSHR_MERGE:          0
cpu0->cpu0_ITLB PREFETCH REQUESTED:          0 ISSUED:          0 USEFUL:          0 USELESS:          0
cpu0->cpu0_ITLB AVERAGE MISS LATENCY: - cycles
cpu0->cpu0_DTLB TOTAL        ACCESS:    2502752 HIT:    2499935 MISS:       2817 MSHR_MERGE:        696
cpu0->cpu0_DTLB LOAD         ACCESS:    2502752 HIT:    2499935 MISS:       2817 MSHR_MERGE:        696
cpu0->cpu0_DTLB RFO          ACCESS:          0 HIT:          0 MISS:          0 MSHR_MERGE:          0
cpu0->cpu0_DTLB PREFETCH     ACCESS:          0 HIT:          0 MISS:          0 MSHR_MERGE:          0
cpu0->cpu0_DTLB WRITE        ACCESS:          0 HIT:          0 MISS:          0 MSHR_MERGE:          0
cpu0->cpu0_DTLB TRANSLATION  ACCESS:          0 HIT:          0 MISS:          0 MSHR_MERGE:          0
cpu0->cpu0_DTLB PREFETCH REQUESTED:          0 ISSUED:          0 USEFUL:          0 USELESS:          0
cpu0->cpu0_DTLB AVERAGE MISS LATENCY: 14.7 cycles
cpu0->LLC TOTAL        ACCESS:       7959 HIT:       5763 MISS:       2196 MSHR_MERGE:          0
cpu0->LLC LOAD         ACCESS:       5903 HIT:       5328 MISS:        575 MSHR_MERGE:          0
cpu0->LLC RFO          ACCESS:       1592 HIT:         11 MISS:       1581 MSHR_MERGE:          0
cpu0->LLC PREFETCH     ACCESS:          0 HIT:          0 MISS:          0 MSHR_MERGE:          0
cpu0->LLC WRITE        ACCESS:        422 HIT:        422 MISS:          0 MSHR_MERGE:          0
cpu0->LLC TRANSLATION  ACCESS:         42 HIT:          2 MISS:         40 MSHR_MERGE:          0
cpu0->LLC PREFETCH REQUESTED:          0 ISSUED:          0 USEFUL:          0 USELESS:          0
cpu0->LLC AVERAGE MISS LATENCY: 157.2 cycles

DRAM Statistics

Channel 0 RQ ROW_BUFFER_HIT:        572
  ROW_BUFFER_MISS:       1624
  AVG DBUS CONGESTED CYCLE: 2.614
Channel 0 WQ ROW_BUFFER_HIT:          0
  ROW_BUFFER_MISS:          0
  FULL:          0
Channel 0 REFRESHES ISSUED:        467
