[VMEM] WARNING: physical memory size is smaller than virtual memory size.

*** ChampSim Multicore Out-of-Order Simulator ***
Warmup Instructions: 2000000
Simulation Instructions: 10000000
Number of CPUs: 1
Page size: 4096

Off-chip DRAM Size: 16 GiB Channels: 1 Width: 64-bit Data Rate: 3205 MT/s
Warmup finished CPU 0 instructions: 2000004 cycles: 508385 cumulative IPC: 3.934 (Simulation time: 00 hr 00 min 05 sec)
Warmup complete CPU 0 instructions: 2000004 cycles: 508385 cumulative IPC: 3.934 (Simulation time: 00 hr 00 min 05 sec)
Heartbeat CPU 0 instructions: 10000001 cycles: 6181141 heartbeat IPC: 1.618 cumulative IPC: 1.41 (Simulation time: 00 hr 00 min 39 sec)
Simulation finished CPU 0 instructions: 10000001 cycles: 7143923 cumulative IPC: 1.4 (Simulation time: 00 hr 00 min 46 sec)
Simulation complete CPU 0 instructions: 10000001 cycles: 7143923 cumulative IPC: 1.4 (Simulation time: 00 hr 00 min 46 sec)

ChampSim completed all CPUs

=== Simulation ===
CPU 0 runs traces/648.exchange2_s-387B.champsimtrace.xz

Region of Interest Statistics

CPU 0 cumulative IPC: 1.4 instructions: 10000001 cycles: 7143923
CPU 0 Branch Prediction Accuracy: 88.38% MPKI: 16.62 Average ROB Occupancy at Mispredict: 24.17
Branch type MPKI
BRANCH_DIRECT_JUMP: 0.1638
BRANCH_INDIRECT: 0
BRANCH_CONDITIONAL: 16.44
BRANCH_DIRECT_CALL: 0.008
BRANCH_INDIRECT_CALL: 0
BRANCH_RETURN: 0.008

cpu0->cpu0_STLB TOTAL        ACCESS:         35 HIT:          0 MISS:         35 MSHR_MERGE:          0
cpu0->cpu0_STLB LOAD         ACCESS:         35 HIT:          0 MISS:         35 MSHR_MERGE:          0
cpu0->cpu0_STLB RFO          ACCESS:          0 HIT:          0 MISS:          0 MSHR_MERGE:          0
cpu0->cpu0_STLB PREFETCH     ACCESS:          0 HIT:          0 MISS:          0 MSHR_MERGE:          0
cpu0->cpu0_STLB WRITE        ACCESS:          0 HIT:          0 MISS:          0 MSHR_MERGE:          0
cpu0->cpu0_STLB TRANSLATION  ACCESS:          0 HIT:          0 MISS:          0 MSHR_MERGE:          0
cpu0->cpu0_STLB PREFETCH REQUESTED:          0 ISSUED:          0 USEFUL:          0 USELESS:          0
cpu0->cpu0_STLB AVERAGE MISS LATENCY: 720.5 cycles
cpu0->cpu0_L2C TOTAL        ACCESS:       1234 HIT:        240 MISS:        994 MSHR_MERGE:          0
cpu0->cpu0_L2C LOAD         ACCESS:       1084 HIT:        236 MISS:        848 MSHR_MERGE:          0
cpu0->cpu0_L2C RFO          ACCESS:         93 HIT:          0 MISS:         93 MSHR_MERGE:          0
cpu0->cpu0_L2C PREFETCH     ACCESS:          0 HIT:          0 MISS:          0 MSHR_MERGE:          0
cpu0->cpu0_L2C WRITE        ACCESS:          4 HIT:          4 MISS:          0 MSHR_MERGE:          0
cpu0->cpu0_L2C TRANSLATION  ACCESS:         53 HIT:          0 MISS:         53 MSHR_MERGE:          0
cpu0->cpu0_L2C PREFETCH REQUESTED:          0 ISSUED:          0 USEFUL:          0 USELESS:          0
cpu0->cpu0_L2C AVERAGE MISS LATENCY: 185.9 cycles
cpu0->cpu0_L1I TOTAL        ACCESS:     924158 HIT:     922652 MISS:       1506 MSHR_MERGE:        457
cpu0->cpu0_L1I LOAD         ACCESS:     924158 HIT:     922652 MISS:       1506 MSHR_MERGE:        457
cpu0->cpu0_L1I RFO          ACCESS:          0 HIT:          0 MISS:          0 MSHR_MERGE:          0
cpu0->cpu0_L1I PREFETCH     ACCESS:          0 HIT:          0 MISS:          0 MSHR_MERGE:          0
cpu0->cpu0_L1I WRITE        ACCESS:          0 HIT:          0 MISS:          0 MSHR_MERGE:          0
cpu0->cpu0_L1I TRANSLATION  ACCESS:          0 HIT:          0 MISS:          0 MSHR_MERGE:          0
cpu0->cpu0_L1I PREFETCH REQUESTED:          0 ISSUED:          0 USEFUL:          0 USELESS:          0
cpu0->cpu0_L1I AVERAGE MISS LATENCY: 151.6 cycles
cpu0->cpu0_L1D TOTAL        ACCESS:    3210475 HIT:    3209575 MISS:        900 MSHR_MERGE:        719
cpu0->cpu0_L1D LOAD         ACCESS:    1595030 HIT:    1594948 MISS:         82 MSHR_MERGE:         47
cpu0->cpu0_L1D RFO          ACCESS:          0 HIT:          0 MISS:          0 MSHR_MERGE:          0
cpu0->cpu0_L1D PREFETCH     ACCESS:          0 HIT:          0 MISS:          0 MSHR_MERGE:          0
cpu0->cpu0_L1D WRITE        ACCESS:    1615374 HIT:    1614609 MISS:        765 MSHR_MERGE:        672
cpu0->cpu0_L1D TRANSLATION  ACCESS:         71 HIT:         18 MISS:         53 MSHR_MERGE:          0
cpu0->cpu0_L1D PREFETCH REQUESTED:          0 ISSUED:          0 USEFUL:          0 USELESS:          0
cpu0->cpu0_L1D AVERAGE MISS LATENCY: 196.1 cycles
cpu0->cpu0_ITLB TOTAL        ACCESS:     735730 HIT:     735673 MISS:         57 MSHR_MERGE:         34
cpu0->cpu0_ITLB LOAD         ACCESS:     735730 HIT:     735673 MISS:         57 MSHR_MERGE:         34
cpu0->cpu0_ITLB RFO          ACCESS:          0 HIT:          0 MISS:          0 MSHR_MERGE:          0
cpu0->cpu0_ITLB PREFETCH     ACCESS:          0 HIT:          0 MISS:          0 MSHR_MERGE:          0
cpu0->cpu0_ITLB WRITE        ACCESS:          0 HIT:          0 MISS:          0 MSHR_MERGE:          0
cpu0->cpu0_ITLB TRANSLATION  ACCESS:          0 HIT:          0 MISS:          0 MSHR_MERGE:          0
cpu0->cpu0_ITLB PREFETCH REQUESTED:          0 ISSUED:          0 USEFUL:          0 USELESS:          0
cpu0->cpu0_ITLB AVERAGE MISS LATENCY: 725 cycles
cpu0->cpu0_DTLB TOTAL        ACCESS:    2916991 HIT:    2916948 MISS:         43 MSHR_MERGE:         31
cpu0->cpu0_DTLB LOAD         ACCESS:    2916991 HIT:    2916948 MISS:         43 MSHR_MERGE:         31
cpu0->cpu0_DTLB RFO          ACCESS:          0 HIT:          0 MISS:          0 MSHR_MERGE:          0
cpu0->cpu0_DTLB PREFETCH     ACCESS:          0 HIT:          0 MISS:          0 MSHR_MERGE:          0
cpu0->cpu0_DTLB WRITE        ACCESS:          0 HIT:          0 MISS:          0 MSHR_MERGE:          0
cpu0->cpu0_DTLB TRANSLATION  ACCESS:          0 HIT:          0 MISS:          0 MSHR_MERGE:          0
cpu0->cpu0_DTLB PREFETCH REQUESTED:          0 ISSUED:          0 USEFUL:          0 USELESS:          0
cpu0->cpu0_DTLB AVERAGE MISS LATENCY: 729.6 cycles
cpu0->LLC TOTAL        ACCESS:        994 HIT:          0 MISS:        994 MSHR_MERGE:          0
cpu0->LLC LOAD         ACCESS:        848 HIT:          0 MISS:        848 MSHR_MERGE:          0
cpu0->LLC RFO          ACCESS:         93 HIT:          0 MISS:         93 MSHR_MERGE:          0
cpu0->LLC PREFETCH     ACCESS:          0 HIT:          0 MISS:          0 MSHR_MERGE:          0
cpu0->LLC WRITE        ACCESS:          0 HIT:          0 MISS:          0 MSHR_MERGE:          0
cpu0->LLC TRANSLATION  ACCESS:         53 HIT:          0 MISS:         53 MSHR_MERGE:          0
cpu0->LLC PREFETCH REQUESTED:          0 ISSUED:          0 USEFUL:          0 USELESS:          0
cpu0->LLC AVERAGE MISS LATENCY: 169.9 cycles

DRAM Statistics

Channel 0 RQ ROW_BUFFER_HIT:         43
  ROW_BUFFER_MISS:        951
  AVG DBUS CONGESTED CYCLE: 2.95
Channel 0 WQ ROW_BUFFER_HIT:          0
  ROW_BUFFER_MISS:          0
  FULL:          0
Channel 0 REFRESHES ISSUED:        595
