[VMEM] WARNING: physical memory size is smaller than virtual memory size.

*** ChampSim Multicore Out-of-Order Simulator ***
Warmup Instructions: 2000000
Simulation Instructions: 10000000
Number of CPUs: 1
Page size: 4096

Off-chip DRAM Size: 16 GiB Channels: 1 Width: 64-bit Data Rate: 3205 MT/s
Warmup finished CPU 0 instructions: 2000000 cycles: 526097 cumulative IPC: 3.802 (Simulation time: 00 hr 00 min 05 sec)
Warmup complete CPU 0 instructions: 2000000 cycles: 526097 cumulative IPC: 3.802 (Simulation time: 00 hr 00 min 05 sec)
Heartbeat CPU 0 instructions: 10000004 cycles: 6930161 heartbeat IPC: 1.443 cumulative IPC: 1.249 (Simulation time: 00 hr 00 min 54 sec)
Simulation finished CPU 0 instructions: 10000000 cycles: 9855677 cumulative IPC: 1.015 (Simulation time: 00 hr 01 min 18 sec)
Simulation complete CPU 0 instructions: 10000000 cycles: 9855677 cumulative IPC: 1.015 (Simulation time: 00 hr 01 min 18 sec)

ChampSim completed all CPUs

=== Simulation ===
CPU 0 runs traces/654.roms_s-293B.champsimtrace.xz

Region of Interest Statistics

CPU 0 cumulative IPC: 1.015 instructions: 10000000 cycles: 9855677
CPU 0 Branch Prediction Accuracy: 99.68% MPKI: 0.0485 Average ROB Occupancy at Mispredict: 224.2
Branch type MPKI
BRANCH_DIRECT_JUMP: 0.0001
BRANCH_INDIRECT: 0
BRANCH_CONDITIONAL: 0.0484
BRANCH_DIRECT_CALL: 0
BRANCH_INDIRECT_CALL: 0
BRANCH_RETURN: 0

cpu0->cpu0_STLB TOTAL        ACCESS:       2994 HIT:       1572 MISS:       1422 MSHR_MERGE:          0
cpu0->cpu0_STLB LOAD         ACCESS:       2994 HIT:       1572 MISS:       1422 MSHR_MERGE:          0
cpu0->cpu0_STLB RFO          ACCESS:          0 HIT:          0 MISS:          0 MSHR_MERGE:          0
cpu0->cpu0_STLB PREFETCH     ACCESS:          0 HIT:          0 MISS:          0 MSHR_MERGE:          0
cpu0->cpu0_STLB WRITE        ACCESS:          0 HIT:          0 MISS:          0 MSHR_MERGE:          0
cpu0->cpu0_STLB TRANSLATION  ACCESS:          0 HIT:          0 MISS:          0 MSHR_MERGE:          0
cpu0->cpu0_STLB PREFETCH REQUESTED:          0 ISSUED:          0 USEFUL:          0 USELESS:          0
cpu0->cpu0_STLB AVERAGE MISS LATENCY: 904.7 cycles
cpu0->cpu0_L2C TOTAL        ACCESS:     191471 HIT:      76840 MISS:     114631 MSHR_MERGE:          0
cpu0->cpu0_L2C LOAD         ACCESS:      87708 HIT:      25888 MISS:      61820 MSHR_MERGE:          0
cpu0->cpu0_L2C RFO          ACCESS:      50362 HIT:        203 MISS:      50159 MSHR_MERGE:          0
cpu0->cpu0_L2C PREFETCH     ACCESS:          0 HIT:          0 MISS:          0 MSHR_MERGE:          0
cpu0->cpu0_L2C WRITE        ACCESS:      50559 HIT:      50503 MISS:         56 MSHR_MERGE:          0
cpu0->cpu0_L2C TRANSLATION  ACCESS:       2842 HIT:        246 MISS:       2596 MSHR_MERGE:          0
cpu0->cpu0_L2C PREFETCH REQUESTED:          0 ISSUED:          0 USEFUL:          0 USELESS:          0
cpu0->cpu0_L2C AVERAGE MISS LATENCY: 177.8 cycles
cpu0->cpu0_L1I TOTAL        ACCESS:    2010084 HIT:    2010021 MISS:         63 MSHR_MERGE:         21
cpu0->cpu0_L1I LOAD         ACCESS:    2010084 HIT:    2010021 MISS:         63 MSHR_MERGE:         21
cpu0->cpu0_L1I RFO          ACCESS:          0 HIT:          0 MISS:          0 MSHR_MERGE:          0
cpu0->cpu0_L1I PREFETCH     ACCESS:          0 HIT:          0 MISS:          0 MSHR_MERGE:          0
cpu0->cpu0_L1I WRITE        ACCESS:          0 HIT:          0 MISS:          0 MSHR_MERGE:          0
cpu0->cpu0_L1I TRANSLATION  ACCESS:          0 HIT:          0 MISS:          0 MSHR_MERGE:          0
cpu0->cpu0_L1I PREFETCH REQUESTED:          0 ISSUED:          0 USEFUL:          0 USELESS:          0
cpu0->cpu0_L1I AVERAGE MISS LATENCY: 249.5 cycles
cpu0->cpu0_L1D TOTAL        ACCESS:    3185577 HIT:    2841556 MISS:     344021 MSHR_MERGE:     203142
cpu0->cpu0_L1D LOAD         ACCESS:    2279085 HIT:    2127678 MISS:     151407 MSHR_MERGE:      63741
cpu0->cpu0_L1D RFO          ACCESS:          0 HIT:          0 MISS:          0 MSHR_MERGE:          0
cpu0->cpu0_L1D PREFETCH     ACCESS:          0 HIT:          0 MISS:          0 MSHR_MERGE:          0
cpu0->cpu0_L1D WRITE        ACCESS:     903038 HIT:     713282 MISS:     189756 MSHR_MERGE:     139385
cpu0->cpu0_L1D TRANSLATION  ACCESS:       3454 HIT:        596 MISS:       2858 MSHR_MERGE:         16
cpu0->cpu0_L1D PREFETCH REQUESTED:          0 ISSUED:          0 USEFUL:          0 USELESS:          0
cpu0->cpu0_L1D AVERAGE MISS LATENCY: 153.4 cycles
cpu0->cpu0_ITLB TOTAL        ACCESS:    1519603 HIT:    1519602 MISS:          1 MSHR_MERGE:          0
cpu0->cpu0_ITLB LOAD         ACCESS:    1519603 HIT:    1519602 MISS:          1 MSHR_MERGE:          0
cpu0->cpu0_ITLB RFO          ACCESS:          0 HIT:          0 MISS:          0 MSHR_MERGE:          0
cpu0->cpu0_ITLB PREFETCH     ACCESS:          0 HIT:          0 MISS:          0 MSHR_MERGE:          0
cpu0->cpu0_ITLB WRITE        ACCESS:          0 HIT:          0 MISS:          0 MSHR_MERGE:          0
cpu0->cpu0_ITLB TRANSLATION  ACCESS:          0 HIT:          0 MISS:          0 MSHR_MERGE:          0
cpu0->cpu0_ITLB PREFETCH REQUESTED:          0 ISSUED:          0 USEFUL:          0 USELESS:          0
cpu0->cpu0_ITLB AVERAGE MISS LATENCY: 697 cycles
cpu0->cpu0_DTLB TOTAL        ACCESS:    3026956 HIT:    3016893 MISS:      10063 MSHR_MERGE:       7070
cpu0->cpu0_DTLB LOAD         ACCESS:    3026956 HIT:    3016893 MISS:      10063 MSHR_MERGE:       7070
cpu0->cpu0_DTLB RFO          ACCESS:          0 HIT:          0 MISS:          0 MSHR_MERGE:          0
cpu0->cpu0_DTLB PREFETCH     ACCESS:          0 HIT:          0 MISS:          0 MSHR_MERGE:          0
cpu0->cpu0_DTLB WRITE        ACCESS:          0 HIT:          0 MISS:          0 MSHR_MERGE:          0
cpu0->cpu0_DTLB TRANSLATION  ACCESS:          0 HIT:          0 MISS:          0 MSHR_MERGE:          0
cpu0->cpu0_DTLB PREFETCH REQUESTED:          0 ISSUED:          0 USEFUL:          0 USELESS:          0
cpu0->cpu0_DTLB AVERAGE MISS LATENCY: 435.2 cycles
cpu0->LLC TOTAL        ACCESS:     166531 HIT:      85377 MISS:      81154 MSHR_MERGE:          0
cpu0->LLC LOAD         ACCESS:      61820 HIT:      25445 MISS:      36375 MSHR_MERGE:          0
cpu0->LLC RFO          ACCESS:      50159 HIT:       7957 MISS:      42202 MSHR_MERGE:          0
cpu0->LLC PREFETCH     ACCESS:          0 HIT:          0 MISS:          0 MSHR_MERGE:          0
cpu0->LLC WRITE        ACCESS:      51956 HIT:      51949 MISS:          7 MSHR_MERGE:          0
cpu0->LLC TRANSLATION  ACCESS:       2596 HIT:         26 MISS:       2570 MSHR_MERGE:          0
cpu0->LLC PREFETCH REQUESTED:          0 ISSUED:          0 USEFUL:          0 USELESS:          0
cpu0->LLC AVERAGE MISS LATENCY: 229 cycles

DRAM Statistics

Channel 0 RQ ROW_BUFFER_HIT:        417
  ROW_BUFFER_MISS:      80570
  AVG DBUS CONGESTED CYCLE: 7.269
Channel 0 WQ ROW_BUFFER_HIT:      11377
  ROW_BUFFER_MISS:      25505
  FULL:          0
Channel 0 REFRESHES ISSUED:        822
