[VMEM] WARNING: physical memory size is smaller than virtual memory size.

*** ChampSim Multicore Out-of-Order Simulator ***
Warmup Instructions: 1000000
Simulation Instructions: 5000000
Number of CPUs: 1
Page size: 4096

Off-chip DRAM Size: 16 GiB Channels: 1 Width: 64-bit Data Rate: 3205 MT/s
Warmup finished CPU 0 instructions: 1000002 cycles: 359888 cumulative IPC: 2.779 (Simulation time: 00 hr 00 min 03 sec)
Warmup complete CPU 0 instructions: 1000002 cycles: 359888 cumulative IPC: 2.779 (Simulation time: 00 hr 00 min 03 sec)
Simulation finished CPU 0 instructions: 5000001 cycles: 20859606 cumulative IPC: 0.2397 (Simulation time: 00 hr 01 min 27 sec)
Simulation complete CPU 0 instructions: 5000001 cycles: 20859606 cumulative IPC: 0.2397 (Simulation time: 00 hr 01 min 27 sec)

ChampSim completed all CPUs

=== Simulation ===
CPU 0 runs traces/602.gcc_s-1850B.champsimtrace.xz

Region of Interest Statistics

CPU 0 cumulative IPC: 0.2397 instructions: 5000001 cycles: 20859606
CPU 0 Branch Prediction Accuracy: 92.25% MPKI: 19.87 Average ROB Occupancy at Mispredict: 28.63
Branch type MPKI
BRANCH_DIRECT_JUMP: 0.0202
BRANCH_INDIRECT: 0
BRANCH_CONDITIONAL: 19.85
BRANCH_DIRECT_CALL: 0.0002
BRANCH_INDIRECT_CALL: 0
BRANCH_RETURN: 0.0002

cpu0->cpu0_STLB TOTAL        ACCESS:       1707 HIT:        145 MISS:       1562 MSHR_MERGE:          0
cpu0->cpu0_STLB LOAD         ACCESS:       1707 HIT:        145 MISS:       1562 MSHR_MERGE:          0
cpu0->cpu0_STLB RFO          ACCESS:          0 HIT:          0 MISS:          0 MSHR_MERGE:          0
cpu0->cpu0_STLB PREFETCH     ACCESS:          0 HIT:          0 MISS:          0 MSHR_MERGE:          0
cpu0->cpu0_STLB WRITE        ACCESS:          0 HIT:          0 MISS:          0 MSHR_MERGE:          0
cpu0->cpu0_STLB TRANSLATION  ACCESS:          0 HIT:          0 MISS:          0 MSHR_MERGE:          0
cpu0->cpu0_STLB PREFETCH REQUESTED:          0 ISSUED:          0 USEFUL:          0 USELESS:          0
cpu0->cpu0_STLB AVERAGE MISS LATENCY: 687.3 cycles
cpu0->cpu0_L2C TOTAL        ACCESS:     123475 HIT:      32206 MISS:      91269 MSHR_MERGE:          0
cpu0->cpu0_L2C LOAD         ACCESS:     121153 HIT:      31909 MISS:      89244 MSHR_MERGE:          0
cpu0->cpu0_L2C RFO          ACCESS:          6 HIT:          0 MISS:          6 MSHR_MERGE:          0
cpu0->cpu0_L2C PREFETCH     ACCESS:          0 HIT:          0 MISS:          0 MSHR_MERGE:          0
cpu0->cpu0_L2C WRITE        ACCESS:        320 HIT:        290 MISS:         30 MSHR_MERGE:          0
cpu0->cpu0_L2C TRANSLATION  ACCESS:       1996 HIT:          7 MISS:       1989 MSHR_MERGE:          0
cpu0->cpu0_L2C PREFETCH REQUESTED:          0 ISSUED:          0 USEFUL:          0 USELESS:          0
cpu0->cpu0_L2C AVERAGE MISS LATENCY: 158.1 cycles
cpu0->cpu0_L1I TOTAL        ACCESS:         80 HIT:         80 MISS:          0 MSHR_MERGE:          0
cpu0->cpu0_L1I LOAD         ACCESS:         80 HIT:         80 MISS:          0 MSHR_MERGE:          0
cpu0->cpu0_L1I RFO          ACCESS:          0 HIT:          0 MISS:          0 MSHR_MERGE:          0
cpu0->cpu0_L1I PREFETCH     ACCESS:          0 HIT:          0 MISS:          0 MSHR_MERGE:          0
cpu0->cpu0_L1I WRITE        ACCESS:          0 HIT:          0 MISS:          0 MSHR_MERGE:          0
cpu0->cpu0_L1I TRANSLATION  ACCESS:          0 HIT:          0 MISS:          0 MSHR_MERGE:          0
cpu0->cpu0_L1I PREFETCH REQUESTED:          0 ISSUED:          0 USEFUL:          0 USELESS:          0
cpu0->cpu0_L1I AVERAGE MISS LATENCY: - cycles
cpu0->cpu0_L1D TOTAL        ACCESS:    1494624 HIT:    1282379 MISS:     212245 MSHR_MERGE:      89090
cpu0->cpu0_L1D LOAD         ACCESS:    1060069 HIT:     849827 MISS:     210242 MSHR_MERGE:      89089
cpu0->cpu0_L1D RFO          ACCESS:          0 HIT:          0 MISS:          0 MSHR_MERGE:          0
cpu0->cpu0_L1D PREFETCH     ACCESS:          0 HIT:          0 MISS:          0 MSHR_MERGE:          0
cpu0->cpu0_L1D WRITE        ACCESS:     431403 HIT:     431397 MISS:          6 MSHR_MERGE:          0
cpu0->cpu0_L1D TRANSLATION  ACCESS:       3152 HIT:       1155 MISS:       1997 MSHR_MERGE:          1
cpu0->cpu0_L1D PREFETCH REQUESTED:          0 ISSUED:          0 USEFUL:          0 USELESS:          0
cpu0->cpu0_L1D AVERAGE MISS LATENCY: 125.9 cycles
cpu0->cpu0_ITLB TOTAL        ACCESS:         61 HIT:         61 MISS:          0 MSHR_MERGE:          0
cpu0->cpu0_ITLB LOAD         ACCESS:         61 HIT:         61 MISS:          0 MSHR_MERGE:          0
cpu0->cpu0_ITLB RFO          ACCESS:          0 HIT:          0 MISS:          0 MSHR_MERGE:          0
cpu0->cpu0_ITLB PREFETCH     ACCESS:          0 HIT:          0 MISS:          0 MSHR_MERGE:          0
cpu0->cpu0_ITLB WRITE        ACCESS:          0 HIT:          0 MISS:          0 MSHR_MERGE:          0
cpu0->cpu0_ITLB TRANSLATION  ACCESS:          0 HIT:          0 MISS:          0 MSHR_MERGE:          0
cpu0->cpu0_ITLB PREFETCH REQUESTED:          0 ISSUED:          0 USEFUL:          0 USELESS:          0
cpu0->cpu0_ITLB AVERAGE MISS LATENCY: - cycles
cpu0->cpu0_DTLB TOTAL        ACCESS:    1452840 HIT:    1449464 MISS:       3376 MSHR_MERGE:       1669
cpu0->cpu0_DTLB LOAD         ACCESS:    1452840 HIT:    1449464 MISS:       3376 MSHR_MERGE:       1669
cpu0->cpu0_DTLB RFO          ACCESS:          0 HIT:          0 MISS:          0 MSHR_MERGE:          0
cpu0->cpu0_DTLB PREFETCH     ACCESS:          0 HIT:          0 MISS:          0 MSHR_MERGE:          0
cpu0->cpu0_DTLB WRITE        ACCESS:          0 HIT:          0 MISS:          0 MSHR_MERGE:          0
cpu0->cpu0_DTLB TRANSLATION  ACCESS:          0 HIT:          0 MISS:          0 MSHR_MERGE:          0
cpu0->cpu0_DTLB PREFETCH REQUESTED:          0 ISSUED:          0 USEFUL:          0 USELESS:          0
cpu0->cpu0_DTLB AVERAGE MISS LATENCY: 634.8 cycles
cpu0->LLC TOTAL        ACCESS:      91308 HIT:        398 MISS:      90910 MSHR_MERGE:          0
cpu0->LLC LOAD         ACCESS:      89244 HIT:        283 MISS:      88961 MSHR_MERGE:          0
cpu0->LLC RFO          ACCESS:          6 HIT:          0 MISS:          6 MSHR_MERGE:          0
cpu0->LLC PREFETCH     ACCESS:          0 HIT:          0 MISS:          0 MSHR_MERGE:          0
cpu0->LLC WRITE        ACCESS:         69 HIT:         69 MISS:          0 MSHR_MERGE:          0
cpu0->LLC TRANSLATION  ACCESS:       1989 HIT:         46 MISS:       1943 MSHR_MERGE:          0
cpu0->LLC PREFETCH REQUESTED:          0 ISSUED:          0 USEFUL:          0 USELESS:          0
cpu0->LLC AVERAGE MISS LATENCY: 142.6 cycles

DRAM Statistics

Channel 0 RQ ROW_BUFFER_HIT:      22906
  ROW_BUFFER_MISS:      68004
  AVG DBUS CONGESTED CYCLE: 16.58
Channel 0 WQ ROW_BUFFER_HIT:         18
  ROW_BUFFER_MISS:         34
  FULL:          0
Channel 0 REFRESHES ISSUED:       1739
