[VMEM] WARNING: physical memory size is smaller than virtual memory size.

*** ChampSim Multicore Out-of-Order Simulator ***
Warmup Instructions: 1000000
Simulation Instructions: 5000000
Number of CPUs: 1
Page size: 4096

Off-chip DRAM Size: 16 GiB Channels: 1 Width: 64-bit Data Rate: 3205 MT/s
Warmup finished CPU 0 instructions: 1000001 cycles: 287926 cumulative IPC: 3.473 (Simulation time: 00 hr 00 min 03 sec)
Warmup complete CPU 0 instructions: 1000001 cycles: 287926 cumulative IPC: 3.473 (Simulation time: 00 hr 00 min 03 sec)
Simulation finished CPU 0 instructions: 5000000 cycles: 5755495 cumulative IPC: 0.8687 (Simulation time: 00 hr 00 min 37 sec)
Simulation complete CPU 0 instructions: 5000000 cycles: 5755495 cumulative IPC: 0.8687 (Simulation time: 00 hr 00 min 37 sec)

ChampSim completed all CPUs

=== Simulation ===
CPU 0 runs traces/603.bwaves_s-2931B.champsimtrace.xz

Region of Interest Statistics

CPU 0 cumulative IPC: 0.8687 instructions: 5000000 cycles: 5755495
CPU 0 Branch Prediction Accuracy: 80.62% MPKI: 1.636 Average ROB Occupancy at Mispredict: 296.9
Branch type MPKI
BRANCH_DIRECT_JUMP: 0
BRANCH_INDIRECT: 0
BRANCH_CONDITIONAL: 1.636
BRANCH_DIRECT_CALL: 0
BRANCH_INDIRECT_CALL: 0
BRANCH_RETURN: 0

cpu0->cpu0_STLB TOTAL        ACCESS:       8276 HIT:       7204 MISS:       1072 MSHR_MERGE:          0
cpu0->cpu0_STLB LOAD         ACCESS:       8276 HIT:       7204 MISS:       1072 MSHR_MERGE:          0
cpu0->cpu0_STLB RFO          ACCESS:          0 HIT:          0 MISS:          0 MSHR_MERGE:          0
cpu0->cpu0_STLB PREFETCH     ACCESS:          0 HIT:          0 MISS:          0 MSHR_MERGE:          0
cpu0->cpu0_STLB WRITE        ACCESS:          0 HIT:          0 MISS:          0 MSHR_MERGE:          0
cpu0->cpu0_STLB TRANSLATION  ACCESS:          0 HIT:          0 MISS:          0 MSHR_MERGE:          0
cpu0->cpu0_STLB PREFETCH REQUESTED:          0 ISSUED:          0 USEFUL:          0 USELESS:          0
cpu0->cpu0_STLB AVERAGE MISS LATENCY: 713.8 cycles
cpu0->cpu0_L2C TOTAL        ACCESS:     117355 HIT:      22598 MISS:      94757 MSHR_MERGE:          0
cpu0->cpu0_L2C LOAD         ACCESS:      51782 HIT:       2824 MISS:      48958 MSHR_MERGE:          0
cpu0->cpu0_L2C RFO          ACCESS:      31520 HIT:       1745 MISS:      29775 MSHR_MERGE:          0
cpu0->cpu0_L2C PREFETCH     ACCESS:          0 HIT:          0 MISS:          0 MSHR_MERGE:          0
cpu0->cpu0_L2C WRITE        ACCESS:      31918 HIT:      17798 MISS:      14120 MSHR_MERGE:          0
cpu0->cpu0_L2C TRANSLATION  ACCESS:       2135 HIT:        231 MISS:       1904 MSHR_MERGE:          0
cpu0->cpu0_L2C PREFETCH REQUESTED:          0 ISSUED:          0 USEFUL:          0 USELESS:          0
cpu0->cpu0_L2C AVERAGE MISS LATENCY: 177.4 cycles
cpu0->cpu0_L1I TOTAL        ACCESS:     568137 HIT:     568137 MISS:          0 MSHR_MERGE:          0
cpu0->cpu0_L1I LOAD         ACCESS:     568137 HIT:     568137 MISS:          0 MSHR_MERGE:          0
cpu0->cpu0_L1I RFO          ACCESS:          0 HIT:          0 MISS:          0 MSHR_MERGE:          0
cpu0->cpu0_L1I PREFETCH     ACCESS:          0 HIT:          0 MISS:          0 MSHR_MERGE:          0
cpu0->cpu0_L1I WRITE        ACCESS:          0 HIT:          0 MISS:          0 MSHR_MERGE:          0
cpu0->cpu0_L1I TRANSLATION  ACCESS:          0 HIT:          0 MISS:          0 MSHR_MERGE:          0
cpu0->cpu0_L1I PREFETCH REQUESTED:          0 ISSUED:          0 USEFUL:          0 USELESS:          0
cpu0->cpu0_L1I AVERAGE MISS LATENCY: - cycles
cpu0->cpu0_L1D TOTAL        ACCESS:    1706309 HIT:    1547107 MISS:     159202 MSHR_MERGE:      73730
cpu0->cpu0_L1D LOAD         ACCESS:     789512 HIT:     737082 MISS:      52430 MSHR_MERGE:        647
cpu0->cpu0_L1D RFO          ACCESS:          0 HIT:          0 MISS:          0 MSHR_MERGE:          0
cpu0->cpu0_L1D PREFETCH     ACCESS:          0 HIT:          0 MISS:          0 MSHR_MERGE:          0
cpu0->cpu0_L1D WRITE        ACCESS:     914650 HIT:     810014 MISS:     104636 MSHR_MERGE:      73082
cpu0->cpu0_L1D TRANSLATION  ACCESS:       2147 HIT:         11 MISS:       2136 MSHR_MERGE:          1
cpu0->cpu0_L1D PREFETCH REQUESTED:          0 ISSUED:          0 USEFUL:          0 USELESS:          0
cpu0->cpu0_L1D AVERAGE MISS LATENCY: 205.1 cycles
cpu0->cpu0_ITLB TOTAL        ACCESS:     454477 HIT:     454477 MISS:          0 MSHR_MERGE:          0
cpu0->cpu0_ITLB LOAD         ACCESS:     454477 HIT:     454477 MISS:          0 MSHR_MERGE:          0
cpu0->cpu0_ITLB RFO          ACCESS:          0 HIT:          0 MISS:          0 MSHR_MERGE:          0
cpu0->cpu0_ITLB PREFETCH     ACCESS:          0 HIT:          0 MISS:          0 MSHR_MERGE:          0
cpu0->cpu0_ITLB WRITE        ACCESS:          0 HIT:          0 MISS:          0 MSHR_MERGE:          0
cpu0->cpu0_ITLB TRANSLATION  ACCESS:          0 HIT:          0 MISS:          0 MSHR_MERGE:          0
cpu0->cpu0_ITLB PREFETCH REQUESTED:          0 ISSUED:          0 USEFUL:          0 USELESS:          0
cpu0->cpu0_ITLB AVERAGE MISS LATENCY: - cycles
cpu0->cpu0_DTLB TOTAL        ACCESS:    1576005 HIT:    1566686 MISS:       9319 MSHR_MERGE:       1043
cpu0->cpu0_DTLB LOAD         ACCESS:    1576005 HIT:    1566686 MISS:       9319 MSHR_MERGE:       1043
cpu0->cpu0_DTLB RFO          ACCESS:          0 HIT:          0 MISS:          0 MSHR_MERGE:          0
cpu0->cpu0_DTLB PREFETCH     ACCESS:          0 HIT:          0 MISS:          0 MSHR_MERGE:          0
cpu0->cpu0_DTLB WRITE        ACCESS:          0 HIT:          0 MISS:          0 MSHR_MERGE:          0
cpu0->cpu0_DTLB TRANSLATION  ACCESS:          0 HIT:          0 MISS:          0 MSHR_MERGE:          0
cpu0->cpu0_DTLB PREFETCH REQUESTED:          0 ISSUED:          0 USEFUL:          0 USELESS:          0
cpu0->cpu0_DTLB AVERAGE MISS LATENCY: 97.61 cycles
cpu0->LLC TOTAL        ACCESS:     110869 HIT:      40543 MISS:      70326 MSHR_MERGE:          0
cpu0->LLC LOAD         ACCESS:      48958 HIT:      10674 MISS:      38284 MSHR_MERGE:          0
cpu0->LLC RFO          ACCESS:      29775 HIT:          4 MISS:      29771 MSHR_MERGE:          0
cpu0->LLC PREFETCH     ACCESS:          0 HIT:          0 MISS:          0 MSHR_MERGE:          0
cpu0->LLC WRITE        ACCESS:      30232 HIT:      29196 MISS:       1036 MSHR_MERGE:          0
cpu0->LLC TRANSLATION  ACCESS:       1904 HIT:        669 MISS:       1235 MSHR_MERGE:          0
cpu0->LLC PREFETCH REQUESTED:          0 ISSUED:          0 USEFUL:          0 USELESS:          0
cpu0->LLC AVERAGE MISS LATENCY: 220.2 cycles

DRAM Statistics

Channel 0 RQ ROW_BUFFER_HIT:          1
  ROW_BUFFER_MISS:      69289
  AVG DBUS CONGESTED CYCLE: 11.42
Channel 0 WQ ROW_BUFFER_HIT:       7677
  ROW_BUFFER_MISS:      12583
  FULL:          0
Channel 0 REFRESHES ISSUED:        480
