[VMEM] WARNING: physical memory size is smaller than virtual memory size.

*** ChampSim Multicore Out-of-Order Simulator ***
Warmup Instructions: 1000000
Simulation Instructions: 5000000
Number of CPUs: 1
Page size: 4096

Off-chip DRAM Size: 16 GiB Channels: 1 Width: 64-bit Data Rate: 3205 MT/s
Warmup finished CPU 0 instructions: 1000003 cycles: 559920 cumulative IPC: 1.786 (Simulation time: 00 hr 00 min 05 sec)
Warmup complete CPU 0 instructions: 1000003 cycles: 559920 cumulative IPC: 1.786 (Simulation time: 00 hr 00 min 05 sec)
Simulation finished CPU 0 instructions: 5000002 cycles: 20630408 cumulative IPC: 0.2424 (Simulation time: 00 hr 02 min 18 sec)
Simulation complete CPU 0 instructions: 5000002 cycles: 20630408 cumulative IPC: 0.2424 (Simulation time: 00 hr 02 min 18 sec)

ChampSim completed all CPUs

=== Simulation ===
CPU 0 runs traces/605.mcf_s-1536B.champsimtrace.xz

Region of Interest Statistics

CPU 0 cumulative IPC: 0.2424 instructions: 5000002 cycles: 20630408
CPU 0 Branch Prediction Accuracy: 99.97% MPKI: 0.049 Average ROB Occupancy at Mispredict: 177.4
Branch type MPKI
BRANCH_DIRECT_JUMP: 0
BRANCH_INDIRECT: 0
BRANCH_CONDITIONAL: 0.049
BRANCH_DIRECT_CALL: 0
BRANCH_INDIRECT_CALL: 0
BRANCH_RETURN: 0

cpu0->cpu0_STLB TOTAL        ACCESS:     152419 HIT:      40381 MISS:     112038 MSHR_MERGE:          0
cpu0->cpu0_STLB LOAD         ACCESS:     152419 HIT:      40381 MISS:     112038 MSHR_MERGE:          0
cpu0->cpu0_STLB RFO          ACCESS:          0 HIT:          0 MISS:          0 MSHR_MERGE:          0
cpu0->cpu0_STLB PREFETCH     ACCESS:          0 HIT:          0 MISS:          0 MSHR_MERGE:          0
cpu0->cpu0_STLB WRITE        ACCESS:          0 HIT:          0 MISS:          0 MSHR_MERGE:          0
cpu0->cpu0_STLB TRANSLATION  ACCESS:          0 HIT:          0 MISS:          0 MSHR_MERGE:          0
cpu0->cpu0_STLB PREFETCH REQUESTED:          0 ISSUED:          0 USEFUL:          0 USELESS:          0
cpu0->cpu0_STLB AVERAGE MISS LATENCY: 80.71 cycles
cpu0->cpu0_L2C TOTAL        ACCESS:     573921 HIT:     195556 MISS:     378365 MSHR_MERGE:          0
cpu0->cpu0_L2C LOAD         ACCESS:     223427 HIT:      67289 MISS:     156138 MSHR_MERGE:          0
cpu0->cpu0_L2C RFO          ACCESS:      14423 HIT:        562 MISS:      13861 MSHR_MERGE:          0
cpu0->cpu0_L2C PREFETCH     ACCESS:          0 HIT:          0 MISS:          0 MSHR_MERGE:          0
cpu0->cpu0_L2C WRITE        ACCESS:     111423 HIT:      57408 MISS:      54015 MSHR_MERGE:          0
cpu0->cpu0_L2C TRANSLATION  ACCESS:     224648 HIT:      70297 MISS:     154351 MSHR_MERGE:          0
cpu0->cpu0_L2C PREFETCH REQUESTED:          0 ISSUED:          0 USEFUL:          0 USELESS:          0
cpu0->cpu0_L2C AVERAGE MISS LATENCY: 96.35 cycles
cpu0->cpu0_L1I TOTAL        ACCESS:    1112239 HIT:    1112239 MISS:          0 MSHR_MERGE:          0
cpu0->cpu0_L1I LOAD         ACCESS:    1112239 HIT:    1112239 MISS:          0 MSHR_MERGE:          0
cpu0->cpu0_L1I RFO          ACCESS:          0 HIT:          0 MISS:          0 MSHR_MERGE:          0
cpu0->cpu0_L1I PREFETCH     ACCESS:          0 HIT:          0 MISS:          0 MSHR_MERGE:          0
cpu0->cpu0_L1I WRITE        ACCESS:          0 HIT:          0 MISS:          0 MSHR_MERGE:          0
cpu0->cpu0_L1I TRANSLATION  ACCESS:          0 HIT:          0 MISS:          0 MSHR_MERGE:          0
cpu0->cpu0_L1I PREFETCH REQUESTED:          0 ISSUED:          0 USEFUL:          0 USELESS:          0
cpu0->cpu0_L1I AVERAGE MISS LATENCY: - cycles
cpu0->cpu0_L1D TOTAL        ACCESS:    1459597 HIT:     829662 MISS:     629935 MSHR_MERGE:     167435
cpu0->cpu0_L1D LOAD         ACCESS:     997766 HIT:     607894 MISS:     389872 MSHR_MERGE:     166447
cpu0->cpu0_L1D RFO          ACCESS:          0 HIT:          0 MISS:          0 MSHR_MERGE:          0
cpu0->cpu0_L1D PREFETCH     ACCESS:          0 HIT:          0 MISS:          0 MSHR_MERGE:          0
cpu0->cpu0_L1D WRITE        ACCESS:     221715 HIT:     207283 MISS:      14432 MSHR_MERGE:          5
cpu0->cpu0_L1D TRANSLATION  ACCESS:     240116 HIT:      14485 MISS:     225631 MSHR_MERGE:        983
cpu0->cpu0_L1D PREFETCH REQUESTED:          0 ISSUED:          0 USEFUL:          0 USELESS:          0
cpu0->cpu0_L1D AVERAGE MISS LATENCY: 87.16 cycles
cpu0->cpu0_ITLB TOTAL        ACCESS:     996870 HIT:     996870 MISS:          0 MSHR_MERGE:          0
cpu0->cpu0_ITLB LOAD         ACCESS:     996870 HIT:     996870 MISS:          0 MSHR_MERGE:          0
cpu0->cpu0_ITLB RFO          ACCESS:          0 HIT:          0 MISS:          0 MSHR_MERGE:          0
cpu0->cpu0_ITLB PREFETCH     ACCESS:          0 HIT:          0 MISS:          0 MSHR_MERGE:          0
cpu0->cpu0_ITLB WRITE        ACCESS:          0 HIT:          0 MISS:          0 MSHR_MERGE:          0
cpu0->cpu0_ITLB TRANSLATION  ACCESS:          0 HIT:          0 MISS:          0 MSHR_MERGE:          0
cpu0->cpu0_ITLB PREFETCH REQUESTED:          0 ISSUED:          0 USEFUL:          0 USELESS:          0
cpu0->cpu0_ITLB AVERAGE MISS LATENCY: - cycles
cpu0->cpu0_DTLB TOTAL        ACCESS:    1211782 HIT:     859704 MISS:     352078 MSHR_MERGE:     199659
cpu0->cpu0_DTLB LOAD         ACCESS:    1211782 HIT:     859704 MISS:     352078 MSHR_MERGE:     199659
cpu0->cpu0_DTLB RFO          ACCESS:          0 HIT:          0 MISS:          0 MSHR_MERGE:          0
cpu0->cpu0_DTLB PREFETCH     ACCESS:          0 HIT:          0 MISS:          0 MSHR_MERGE:          0
cpu0->cpu0_DTLB WRITE        ACCESS:          0 HIT:          0 MISS:          0 MSHR_MERGE:          0
cpu0->cpu0_DTLB TRANSLATION  ACCESS:          0 HIT:          0 MISS:          0 MSHR_MERGE:          0
cpu0->cpu0_DTLB PREFETCH REQUESTED:          0 ISSUED:          0 USEFUL:          0 USELESS:          0
cpu0->cpu0_DTLB AVERAGE MISS LATENCY: 65.06 cycles
cpu0->LLC TOTAL        ACCESS:     435540 HIT:     298940 MISS:     136600 MSHR_MERGE:          0
cpu0->LLC LOAD         ACCESS:     156138 HIT:      29257 MISS:     126881 MSHR_MERGE:          0
cpu0->LLC RFO          ACCESS:      13861 HIT:      13861 MISS:          0 MSHR_MERGE:          0
cpu0->LLC PREFETCH     ACCESS:          0 HIT:          0 MISS:          0 MSHR_MERGE:          0
cpu0->LLC WRITE        ACCESS:     111191 HIT:     110894 MISS:        297 MSHR_MERGE:          0
cpu0->LLC TRANSLATION  ACCESS:     154350 HIT:     144928 MISS:       9422 MSHR_MERGE:          0
cpu0->LLC PREFETCH REQUESTED:          0 ISSUED:          0 USEFUL:          0 USELESS:          0
cpu0->LLC AVERAGE MISS LATENCY: 228.7 cycles

DRAM Statistics

Channel 0 RQ ROW_BUFFER_HIT:         28
  ROW_BUFFER_MISS:     136275
  AVG DBUS CONGESTED CYCLE: 5.886
Channel 0 WQ ROW_BUFFER_HIT:      35429
  ROW_BUFFER_MISS:      72205
  FULL:          0
Channel 0 REFRESHES ISSUED:       1719
