[VMEM] WARNING: physical memory size is smaller than virtual memory size.

*** ChampSim Multicore Out-of-Order Simulator ***
Warmup Instructions: 1000000
Simulation Instructions: 5000000
Number of CPUs: 1
Page size: 4096

Off-chip DRAM Size: 16 GiB Channels: 1 Width: 64-bit Data Rate: 3205 MT/s
Warmup finished CPU 0 instructions: 1000004 cycles: 315537 cumulative IPC: 3.169 (Simulation time: 00 hr 00 min 03 sec)
Warmup complete CPU 0 instructions: 1000004 cycles: 315537 cumulative IPC: 3.169 (Simulation time: 00 hr 00 min 03 sec)
Simulation finished CPU 0 instructions: 5000001 cycles: 3033307 cumulative IPC: 1.648 (Simulation time: 00 hr 00 min 28 sec)
Simulation complete CPU 0 instructions: 5000001 cycles: 3033307 cumulative IPC: 1.648 (Simulation time: 00 hr 00 min 28 sec)

ChampSim completed all CPUs

=== Simulation ===
CPU 0 runs traces/607.cactuBSSN_s-2421B.champsimtrace.xz

Region of Interest Statistics

CPU 0 cumulative IPC: 1.648 instructions: 5000001 cycles: 3033307
CPU 0 Branch Prediction Accuracy: 91.82% MPKI: 0.7284 Average ROB Occupancy at Mispredict: 325.6
Branch type MPKI
BRANCH_DIRECT_JUMP: 0
BRANCH_INDIRECT: 0
BRANCH_CONDITIONAL: 0.3648
BRANCH_DIRECT_CALL: 0
BRANCH_INDIRECT_CALL: 0
BRANCH_RETURN: 0.3636

cpu0->cpu0_STLB TOTAL        ACCESS:     191730 HIT:     191512 MISS:        218 MSHR_MERGE:          0
cpu0->cpu0_STLB LOAD         ACCESS:     191730 HIT:     191512 MISS:        218 MSHR_MERGE:          0
cpu0->cpu0_STLB RFO          ACCESS:          0 HIT:          0 MISS:          0 MSHR_MERGE:          0
cpu0->cpu0_STLB PREFETCH     ACCESS:          0 HIT:          0 MISS:          0 MSHR_MERGE:          0
cpu0->cpu0_STLB WRITE        ACCESS:          0 HIT:          0 MISS:          0 MSHR_MERGE:          0
cpu0->cpu0_STLB TRANSLATION  ACCESS:          0 HIT:          0 MISS:          0 MSHR_MERGE:          0
cpu0->cpu0_STLB PREFETCH REQUESTED:          0 ISSUED:          0 USEFUL:          0 USELESS:          0
cpu0->cpu0_STLB AVERAGE MISS LATENCY: 820.4 cycles
cpu0->cpu0_L2C TOTAL        ACCESS:     532234 HIT:     390762 MISS:     141472 MSHR_MERGE:          0
cpu0->cpu0_L2C LOAD         ACCESS:     467354 HIT:     353314 MISS:     114040 MSHR_MERGE:          0
cpu0->cpu0_L2C RFO          ACCESS:      30587 HIT:      14851 MISS:      15736 MSHR_MERGE:          0
cpu0->cpu0_L2C PREFETCH     ACCESS:          0 HIT:          0 MISS:          0 MSHR_MERGE:          0
cpu0->cpu0_L2C WRITE        ACCESS:      33749 HIT:      22556 MISS:      11193 MSHR_MERGE:          0
cpu0->cpu0_L2C TRANSLATION  ACCESS:        544 HIT:         41 MISS:        503 MSHR_MERGE:          0
cpu0->cpu0_L2C PREFETCH REQUESTED:          0 ISSUED:          0 USEFUL:          0 USELESS:          0
cpu0->cpu0_L2C AVERAGE MISS LATENCY: 34.52 cycles
cpu0->cpu0_L1I TOTAL        ACCESS:    1111923 HIT:     859423 MISS:     252500 MSHR_MERGE:     122505
cpu0->cpu0_L1I LOAD         ACCESS:    1111923 HIT:     859423 MISS:     252500 MSHR_MERGE:     122505
cpu0->cpu0_L1I RFO          ACCESS:          0 HIT:          0 MISS:          0 MSHR_MERGE:          0
cpu0->cpu0_L1I PREFETCH     ACCESS:          0 HIT:          0 MISS:          0 MSHR_MERGE:          0
cpu0->cpu0_L1I WRITE        ACCESS:          0 HIT:          0 MISS:          0 MSHR_MERGE:          0
cpu0->cpu0_L1I TRANSLATION  ACCESS:          0 HIT:          0 MISS:          0 MSHR_MERGE:          0
cpu0->cpu0_L1I PREFETCH REQUESTED:          0 ISSUED:          0 USEFUL:          0 USELESS:          0
cpu0->cpu0_L1I AVERAGE MISS LATENCY: 7.084 cycles
cpu0->cpu0_L1D TOTAL        ACCESS:    1920064 HIT:    1514773 MISS:     405291 MSHR_MERGE:      36793
cpu0->cpu0_L1D LOAD         ACCESS:    1518838 HIT:    1148213 MISS:     370625 MSHR_MERGE:      33261
cpu0->cpu0_L1D RFO          ACCESS:          0 HIT:          0 MISS:          0 MSHR_MERGE:          0
cpu0->cpu0_L1D PREFETCH     ACCESS:          0 HIT:          0 MISS:          0 MSHR_MERGE:          0
cpu0->cpu0_L1D WRITE        ACCESS:     400680 HIT:     366558 MISS:      34122 MSHR_MERGE:       3532
cpu0->cpu0_L1D TRANSLATION  ACCESS:        546 HIT:          2 MISS:        544 MSHR_MERGE:          0
cpu0->cpu0_L1D PREFETCH REQUESTED:          0 ISSUED:          0 USEFUL:          0 USELESS:          0
cpu0->cpu0_L1D AVERAGE MISS LATENCY: 22.65 cycles
cpu0->cpu0_ITLB TOTAL        ACCESS:     888252 HIT:     888252 MISS:          0 MSHR_MERGE:          0
cpu0->cpu0_ITLB LOAD         ACCESS:     888252 HIT:     888252 MISS:          0 MSHR_MERGE:          0
cpu0->cpu0_ITLB RFO          ACCESS:          0 HIT:          0 MISS:          0 MSHR_MERGE:          0
cpu0->cpu0_ITLB PREFETCH     ACCESS:          0 HIT:          0 MISS:          0 MSHR_MERGE:          0
cpu0->cpu0_ITLB WRITE        ACCESS:          0 HIT:          0 MISS:          0 MSHR_MERGE:          0
cpu0->cpu0_ITLB TRANSLATION  ACCESS:          0 HIT:          0 MISS:          0 MSHR_MERGE:          0
cpu0->cpu0_ITLB PREFETCH REQUESTED:          0 ISSUED:          0 USEFUL:          0 USELESS:          0
cpu0->cpu0_ITLB AVERAGE MISS LATENCY: - cycles
cpu0->cpu0_DTLB TOTAL        ACCESS:    1815177 HIT:    1602872 MISS:     212305 MSHR_MERGE:      20575
cpu0->cpu0_DTLB LOAD         ACCESS:    1815177 HIT:    1602872 MISS:     212305 MSHR_MERGE:      20575
cpu0->cpu0_DTLB RFO          ACCESS:          0 HIT:          0 MISS:          0 MSHR_MERGE:          0
cpu0->cpu0_DTLB PREFETCH     ACCESS:          0 HIT:          0 MISS:          0 MSHR_MERGE:          0
cpu0->cpu0_DTLB WRITE        ACCESS:          0 HIT:          0 MISS:          0 MSHR_MERGE:          0
cpu0->cpu0_DTLB TRANSLATION  ACCESS:          0 HIT:          0 MISS:          0 MSHR_MERGE:          0
cpu0->cpu0_DTLB PREFETCH REQUESTED:          0 ISSUED:          0 USEFUL:          0 USELESS:          0
cpu0->cpu0_DTLB AVERAGE MISS LATENCY: 5.976 cycles
cpu0->LLC TOTAL        ACCESS:     145651 HIT:     132238 MISS:      13413 MSHR_MERGE:          0
cpu0->LLC LOAD         ACCESS:     114040 HIT:     103917 MISS:      10123 MSHR_MERGE:          0
cpu0->LLC RFO          ACCESS:      15683 HIT:      12758 MISS:       2925 MSHR_MERGE:          0
cpu0->LLC PREFETCH     ACCESS:          0 HIT:          0 MISS:          0 MSHR_MERGE:          0
cpu0->LLC WRITE        ACCESS:      15425 HIT:      15425 MISS:          0 MSHR_MERGE:          0
cpu0->LLC TRANSLATION  ACCESS:        503 HIT:        138 MISS:        365 MSHR_MERGE:          0
cpu0->LLC PREFETCH REQUESTED:          0 ISSUED:          0 USEFUL:          0 USELESS:          0
cpu0->LLC AVERAGE MISS LATENCY: 213.6 cycles

DRAM Statistics

Channel 0 RQ ROW_BUFFER_HIT:          0
  ROW_BUFFER_MISS:      13413
  AVG DBUS CONGESTED CYCLE: 3.244
Channel 0 WQ ROW_BUFFER_HIT:          4
  ROW_BUFFER_MISS:         19
  FULL:          0
Channel 0 REFRESHES ISSUED:        253
