[VMEM] WARNING: physical memory size is smaller than virtual memory size.

*** ChampSim Multicore Out-of-Order Simulator ***
Warmup Instructions: 1000000
Simulation Instructions: 5000000
Number of CPUs: 1
Page size: 4096

Off-chip DRAM Size: 16 GiB Channels: 1 Width: 64-bit Data Rate: 3205 MT/s
Warmup finished CPU 0 instructions: 1000004 cycles: 337463 cumulative IPC: 2.963 (Simulation time: 00 hr 00 min 03 sec)
Warmup complete CPU 0 instructions: 1000004 cycles: 337463 cumulative IPC: 2.963 (Simulation time: 00 hr 00 min 03 sec)
Simulation finished CPU 0 instructions: 5000002 cycles: 11145274 cumulative IPC: 0.4486 (Simulation time: 00 hr 01 min 24 sec)
Simulation complete CPU 0 instructions: 5000002 cycles: 11145274 cumulative IPC: 0.4486 (Simulation time: 00 hr 01 min 24 sec)

ChampSim completed all CPUs

=== Simulation ===
CPU 0 runs traces/619.lbm_s-2676B.champsimtrace.xz

Region of Interest Statistics

CPU 0 cumulative IPC: 0.4486 instructions: 5000002 cycles: 11145274
CPU 0 Branch Prediction Accuracy: 95.45% MPKI: 0.7996 Average ROB Occupancy at Mispredict: 211.3
Branch type MPKI
BRANCH_DIRECT_JUMP: 0
BRANCH_INDIRECT: 0
BRANCH_CONDITIONAL: 0.7996
BRANCH_DIRECT_CALL: 0
BRANCH_INDIRECT_CALL: 0
BRANCH_RETURN: 0

cpu0->cpu0_STLB TOTAL        ACCESS:       6665 HIT:       3049 MISS:       3616 MSHR_MERGE:          0
cpu0->cpu0_STLB LOAD         ACCESS:       6665 HIT:       3049 MISS:       3616 MSHR_MERGE:          0
cpu0->cpu0_STLB RFO          ACCESS:          0 HIT:          0 MISS:          0 MSHR_MERGE:          0
cpu0->cpu0_STLB PREFETCH     ACCESS:          0 HIT:          0 MISS:          0 MSHR_MERGE:          0
cpu0->cpu0_STLB WRITE        ACCESS:          0 HIT:          0 MISS:          0 MSHR_MERGE:          0
cpu0->cpu0_STLB TRANSLATION  ACCESS:          0 HIT:          0 MISS:          0 MSHR_MERGE:          0
cpu0->cpu0_STLB PREFETCH REQUESTED:          0 ISSUED:          0 USEFUL:          0 USELESS:          0
cpu0->cpu0_STLB AVERAGE MISS LATENCY: 1084 cycles
cpu0->cpu0_L2C TOTAL        ACCESS:     714446 HIT:      96752 MISS:     617694 MSHR_MERGE:          0
cpu0->cpu0_L2C LOAD         ACCESS:      57859 HIT:          0 MISS:      57859 MSHR_MERGE:          0
cpu0->cpu0_L2C RFO          ACCESS:     326255 HIT:      10108 MISS:     316147 MSHR_MERGE:          0
cpu0->cpu0_L2C PREFETCH     ACCESS:          0 HIT:          0 MISS:          0 MSHR_MERGE:          0
cpu0->cpu0_L2C WRITE        ACCESS:     326256 HIT:      86644 MISS:     239612 MSHR_MERGE:          0
cpu0->cpu0_L2C TRANSLATION  ACCESS:       4076 HIT:          0 MISS:       4076 MSHR_MERGE:          0
cpu0->cpu0_L2C PREFETCH REQUESTED:          0 ISSUED:          0 USEFUL:          0 USELESS:          0
cpu0->cpu0_L2C AVERAGE MISS LATENCY: 190 cycles
cpu0->cpu0_L1I TOTAL        ACCESS:     784244 HIT:     784244 MISS:          0 MSHR_MERGE:          0
cpu0->cpu0_L1I LOAD         ACCESS:     784244 HIT:     784244 MISS:          0 MSHR_MERGE:          0
cpu0->cpu0_L1I RFO          ACCESS:          0 HIT:          0 MISS:          0 MSHR_MERGE:          0
cpu0->cpu0_L1I PREFETCH     ACCESS:          0 HIT:          0 MISS:          0 MSHR_MERGE:          0
cpu0->cpu0_L1I WRITE        ACCESS:          0 HIT:          0 MISS:          0 MSHR_MERGE:          0
cpu0->cpu0_L1I TRANSLATION  ACCESS:          0 HIT:          0 MISS:          0 MSHR_MERGE:          0
cpu0->cpu0_L1I PREFETCH REQUESTED:          0 ISSUED:          0 USEFUL:          0 USELESS:          0
cpu0->cpu0_L1I AVERAGE MISS LATENCY: - cycles
cpu0->cpu0_L1D TOTAL        ACCESS:    1238028 HIT:     757892 MISS:     480136 MSHR_MERGE:      91942
cpu0->cpu0_L1D LOAD         ACCESS:     320621 HIT:     187978 MISS:     132643 MSHR_MERGE:      74784
cpu0->cpu0_L1D RFO          ACCESS:          0 HIT:          0 MISS:          0 MSHR_MERGE:          0
cpu0->cpu0_L1D PREFETCH     ACCESS:          0 HIT:          0 MISS:          0 MSHR_MERGE:          0
cpu0->cpu0_L1D WRITE        ACCESS:     910167 HIT:     566750 MISS:     343417 MSHR_MERGE:      17158
cpu0->cpu0_L1D TRANSLATION  ACCESS:       7240 HIT:       3164 MISS:       4076 MSHR_MERGE:          0
cpu0->cpu0_L1D PREFETCH REQUESTED:          0 ISSUED:          0 USEFUL:          0 USELESS:          0
cpu0->cpu0_L1D AVERAGE MISS LATENCY: 309.4 cycles
cpu0->cpu0_ITLB TOTAL        ACCESS:     581247 HIT:     581247 MISS:          0 MSHR_MERGE:          0
cpu0->cpu0_ITLB LOAD         ACCESS:     581247 HIT:     581247 MISS:          0 MSHR_MERGE:          0
cpu0->cpu0_ITLB RFO          ACCESS:          0 HIT:          0 MISS:          0 MSHR_MERGE:          0
cpu0->cpu0_ITLB PREFETCH     ACCESS:          0 HIT:          0 MISS:          0 MSHR_MERGE:          0
cpu0->cpu0_ITLB WRITE        ACCESS:          0 HIT:          0 MISS:          0 MSHR_MERGE:          0
cpu0->cpu0_ITLB TRANSLATION  ACCESS:          0 HIT:          0 MISS:          0 MSHR_MERGE:          0
cpu0->cpu0_ITLB PREFETCH REQUESTED:          0 ISSUED:          0 USEFUL:          0 USELESS:          0
cpu0->cpu0_ITLB AVERAGE MISS LATENCY: - cycles
cpu0->cpu0_DTLB TOTAL        ACCESS:    1161647 HIT:    1137696 MISS:      23951 MSHR_MERGE:      17286
cpu0->cpu0_DTLB LOAD         ACCESS:    1161647 HIT:    1137696 MISS:      23951 MSHR_MERGE:      17286
cpu0->cpu0_DTLB RFO          ACCESS:          0 HIT:          0 MISS:          0 MSHR_MERGE:          0
cpu0->cpu0_DTLB PREFETCH     ACCESS:          0 HIT:          0 MISS:          0 MSHR_MERGE:          0
cpu0->cpu0_DTLB WRITE        ACCESS:          0 HIT:          0 MISS:          0 MSHR_MERGE:          0
cpu0->cpu0_DTLB TRANSLATION  ACCESS:          0 HIT:          0 MISS:          0 MSHR_MERGE:          0
cpu0->cpu0_DTLB PREFETCH REQUESTED:          0 ISSUED:          0 USEFUL:          0 USELESS:          0
cpu0->cpu0_DTLB AVERAGE MISS LATENCY: 593.7 cycles
cpu0->LLC TOTAL        ACCESS:     693011 HIT:     453274 MISS:     239737 MSHR_MERGE:          0
cpu0->LLC LOAD         ACCESS:      57859 HIT:          1 MISS:      57858 MSHR_MERGE:          0
cpu0->LLC RFO          ACCESS:     316147 HIT:     142589 MISS:     173558 MSHR_MERGE:          0
cpu0->LLC PREFETCH     ACCESS:          0 HIT:          0 MISS:          0 MSHR_MERGE:          0
cpu0->LLC WRITE        ACCESS:     314929 HIT:     310682 MISS:       4247 MSHR_MERGE:          0
cpu0->LLC TRANSLATION  ACCESS:       4076 HIT:          2 MISS:       4074 MSHR_MERGE:          0
cpu0->LLC PREFETCH REQUESTED:          0 ISSUED:          0 USEFUL:          0 USELESS:          0
cpu0->LLC AVERAGE MISS LATENCY: 460.6 cycles

DRAM Statistics

Channel 0 RQ ROW_BUFFER_HIT:      11799
  ROW_BUFFER_MISS:     223689
  AVG DBUS CONGESTED CYCLE: 7.242
Channel 0 WQ ROW_BUFFER_HIT:      27380
  ROW_BUFFER_MISS:     143704
  FULL:          0
Channel 0 REFRESHES ISSUED:        928
