[VMEM] WARNING: physical memory size is smaller than virtual memory size.

*** ChampSim Multicore Out-of-Order Simulator ***
Warmup Instructions: 1000000
Simulation Instructions: 5000000
Number of CPUs: 1
Page size: 4096

Off-chip DRAM Size: 16 GiB Channels: 1 Width: 64-bit Data Rate: 3205 MT/s
Warmup finished CPU 0 instructions: 1000003 cycles: 782140 cumulative IPC: 1.279 (Simulation time: 00 hr 00 min 06 sec)
Warmup complete CPU 0 instructions: 1000003 cycles: 782140 cumulative IPC: 1.279 (Simulation time: 00 hr 00 min 06 sec)
Simulation finished CPU 0 instructions: 5000003 cycles: 21182124 cumulative IPC: 0.236 (Simulation time: 00 hr 01 min 41 sec)
Simulation complete CPU 0 instructions: 5000003 cycles: 21182124 cumulative IPC: 0.236 (Simulation time: 00 hr 01 min 41 sec)

ChampSim completed all CPUs

=== Simulation ===
CPU 0 runs traces/620.omnetpp_s-141B.champsimtrace.xz

Region of Interest Statistics

CPU 0 cumulative IPC: 0.236 instructions: 5000003 cycles: 21182124
CPU 0 Branch Prediction Accuracy: 93.13% MPKI: 14.39 Average ROB Occupancy at Mispredict: 43.31
Branch type MPKI
BRANCH_DIRECT_JUMP: 0.8132
BRANCH_INDIRECT: 0.3712
BRANCH_CONDITIONAL: 11.89
BRANCH_DIRECT_CALL: 0.0072
BRANCH_INDIRECT_CALL: 0.8716
BRANCH_RETURN: 0.4386

cpu0->cpu0_STLB TOTAL        ACCESS:     111769 HIT:      86483 MISS:      25286 MSHR_MERGE:          0
cpu0->cpu0_STLB LOAD         ACCESS:     111769 HIT:      86483 MISS:      25286 MSHR_MERGE:          0
cpu0->cpu0_STLB RFO          ACCESS:          0 HIT:          0 MISS:          0 MSHR_MERGE:          0
cpu0->cpu0_STLB PREFETCH     ACCESS:          0 HIT:          0 MISS:          0 MSHR_MERGE:          0
cpu0->cpu0_STLB WRITE        ACCESS:          0 HIT:          0 MISS:          0 MSHR_MERGE:          0
cpu0->cpu0_STLB TRANSLATION  ACCESS:          0 HIT:          0 MISS:          0 MSHR_MERGE:          0
cpu0->cpu0_STLB PREFETCH REQUESTED:          0 ISSUED:          0 USEFUL:          0 USELESS:          0
cpu0->cpu0_STLB AVERAGE MISS LATENCY: 477.8 cycles
cpu0->cpu0_L2C TOTAL        ACCESS:     206615 HIT:      69851 MISS:     136764 MSHR_MERGE:          0
cpu0->cpu0_L2C LOAD         ACCESS:      89525 HIT:      22292 MISS:      67233 MSHR_MERGE:          0
cpu0->cpu0_L2C RFO          ACCESS:      12192 HIT:       2846 MISS:       9346 MSHR_MERGE:          0
cpu0->cpu0_L2C PREFETCH     ACCESS:          0 HIT:          0 MISS:          0 MSHR_MERGE:          0
cpu0->cpu0_L2C WRITE        ACCESS:      48520 HIT:      29758 MISS:      18762 MSHR_MERGE:          0
cpu0->cpu0_L2C TRANSLATION  ACCESS:      56378 HIT:      14955 MISS:      41423 MSHR_MERGE:          0
cpu0->cpu0_L2C PREFETCH REQUESTED:          0 ISSUED:          0 USEFUL:          0 USELESS:          0
cpu0->cpu0_L2C AVERAGE MISS LATENCY: 127.4 cycles
cpu0->cpu0_L1I TOTAL        ACCESS:     676160 HIT:     671420 MISS:       4740 MSHR_MERGE:       1212
cpu0->cpu0_L1I LOAD         ACCESS:     676160 HIT:     671420 MISS:       4740 MSHR_MERGE:       1212
cpu0->cpu0_L1I RFO          ACCESS:          0 HIT:          0 MISS:          0 MSHR_MERGE:          0
cpu0->cpu0_L1I PREFETCH     ACCESS:          0 HIT:          0 MISS:          0 MSHR_MERGE:          0
cpu0->cpu0_L1I WRITE        ACCESS:          0 HIT:          0 MISS:          0 MSHR_MERGE:          0
cpu0->cpu0_L1I TRANSLATION  ACCESS:          0 HIT:          0 MISS:          0 MSHR_MERGE:          0
cpu0->cpu0_L1I PREFETCH REQUESTED:          0 ISSUED:          0 USEFUL:          0 USELESS:          0
cpu0->cpu0_L1I AVERAGE MISS LATENCY: 12.71 cycles
cpu0->cpu0_L1D TOTAL        ACCESS:    2039166 HIT:    1834912 MISS:     204254 MSHR_MERGE:      49687
cpu0->cpu0_L1D LOAD         ACCESS:    1066937 HIT:     956877 MISS:     110060 MSHR_MERGE:      24063
cpu0->cpu0_L1D RFO          ACCESS:          0 HIT:          0 MISS:          0 MSHR_MERGE:          0
cpu0->cpu0_L1D PREFETCH     ACCESS:          0 HIT:          0 MISS:          0 MSHR_MERGE:          0
cpu0->cpu0_L1D WRITE        ACCESS:     911174 HIT:     873509 MISS:      37665 MSHR_MERGE:      25473
cpu0->cpu0_L1D TRANSLATION  ACCESS:      61055 HIT:       4526 MISS:      56529 MSHR_MERGE:        151
cpu0->cpu0_L1D PREFETCH REQUESTED:          0 ISSUED:          0 USEFUL:          0 USELESS:          0
cpu0->cpu0_L1D AVERAGE MISS LATENCY: 120.9 cycles
cpu0->cpu0_ITLB TOTAL        ACCESS:     596564 HIT:     581404 MISS:      15160 MSHR_MERGE:       7350
cpu0->cpu0_ITLB LOAD         ACCESS:     596564 HIT:     581404 MISS:      15160 MSHR_MERGE:       7350
cpu0->cpu0_ITLB RFO          ACCESS:          0 HIT:          0 MISS:          0 MSHR_MERGE:          0
cpu0->cpu0_ITLB PREFETCH     ACCESS:          0 HIT:          0 MISS:          0 MSHR_MERGE:          0
cpu0->cpu0_ITLB WRITE        ACCESS:          0 HIT:          0 MISS:          0 MSHR_MERGE:          0
cpu0->cpu0_ITLB TRANSLATION  ACCESS:          0 HIT:          0 MISS:          0 MSHR_MERGE:          0
cpu0->cpu0_ITLB PREFETCH REQUESTED:          0 ISSUED:          0 USEFUL:          0 USELESS:          0
cpu0->cpu0_ITLB AVERAGE MISS LATENCY: 8.781 cycles
cpu0->cpu0_DTLB TOTAL        ACCESS:    1882657 HIT:    1761018 MISS:     121639 MSHR_MERGE:      17680
cpu0->cpu0_DTLB LOAD         ACCESS:    1882657 HIT:    1761018 MISS:     121639 MSHR_MERGE:      17680
cpu0->cpu0_DTLB RFO          ACCESS:          0 HIT:          0 MISS:          0 MSHR_MERGE:          0
cpu0->cpu0_DTLB PREFETCH     ACCESS:          0 HIT:          0 MISS:          0 MSHR_MERGE:          0
cpu0->cpu0_DTLB WRITE        ACCESS:          0 HIT:          0 MISS:          0 MSHR_MERGE:          0
cpu0->cpu0_DTLB TRANSLATION  ACCESS:          0 HIT:          0 MISS:          0 MSHR_MERGE:          0
cpu0->cpu0_DTLB PREFETCH REQUESTED:          0 ISSUED:          0 USEFUL:          0 USELESS:          0
cpu0->cpu0_DTLB AVERAGE MISS LATENCY: 121.2 cycles
cpu0->LLC TOTAL        ACCESS:     153606 HIT:      69071 MISS:      84535 MSHR_MERGE:          0
cpu0->LLC LOAD         ACCESS:      67233 HIT:      19013 MISS:      48220 MSHR_MERGE:          0
cpu0->LLC RFO          ACCESS:       9346 HIT:       3108 MISS:       6238 MSHR_MERGE:          0
cpu0->LLC PREFETCH     ACCESS:          0 HIT:          0 MISS:          0 MSHR_MERGE:          0
cpu0->LLC WRITE        ACCESS:      35604 HIT:      34611 MISS:        993 MSHR_MERGE:          0
cpu0->LLC TRANSLATION  ACCESS:      41423 HIT:      12339 MISS:      29084 MSHR_MERGE:          0
cpu0->LLC PREFETCH REQUESTED:          0 ISSUED:          0 USEFUL:          0 USELESS:          0
cpu0->LLC AVERAGE MISS LATENCY: 183.3 cycles

DRAM Statistics

Channel 0 RQ ROW_BUFFER_HIT:        292
  ROW_BUFFER_MISS:      83247
  AVG DBUS CONGESTED CYCLE: 19.83
Channel 0 WQ ROW_BUFFER_HIT:       5598
  ROW_BUFFER_MISS:      13814
  FULL:          0
Channel 0 REFRESHES ISSUED:       1765
