[VMEM] WARNING: physical memory size is smaller than virtual memory size.

*** ChampSim Multicore Out-of-Order Simulator ***
Warmup Instructions: 1000000
Simulation Instructions: 5000000
Number of CPUs: 1
Page size: 4096

Off-chip DRAM Size: 16 GiB Channels: 1 Width: 64-bit Data Rate: 3205 MT/s
Warmup finished CPU 0 instructions: 1000002 cycles: 319572 cumulative IPC: 3.129 (Simulation time: 00 hr 00 min 02 sec)
Warmup complete CPU 0 instructions: 1000002 cycles: 319572 cumulative IPC: 3.129 (Simulation time: 00 hr 00 min 02 sec)
Simulation finished CPU 0 instructions: 5000000 cycles: 5935599 cumulative IPC: 0.8424 (Simulation time: 00 hr 00 min 34 sec)
Simulation complete CPU 0 instructions: 5000000 cycles: 5935599 cumulative IPC: 0.8424 (Simulation time: 00 hr 00 min 34 sec)

ChampSim completed all CPUs

=== Simulation ===
CPU 0 runs traces/627.cam4_s-490B.champsimtrace.xz

Region of Interest Statistics

CPU 0 cumulative IPC: 0.8424 instructions: 5000000 cycles: 5935599
CPU 0 Branch Prediction Accuracy: 88.15% MPKI: 11.81 Average ROB Occupancy at Mispredict: 28.59
Branch type MPKI
BRANCH_DIRECT_JUMP: 0.0106
BRANCH_INDIRECT: 0.0004
BRANCH_CONDITIONAL: 11.76
BRANCH_DIRECT_CALL: 0.0174
BRANCH_INDIRECT_CALL: 0
BRANCH_RETURN: 0.0168

cpu0->cpu0_STLB TOTAL        ACCESS:       1571 HIT:       1133 MISS:        438 MSHR_MERGE:          0
cpu0->cpu0_STLB LOAD         ACCESS:       1571 HIT:       1133 MISS:        438 MSHR_MERGE:          0
cpu0->cpu0_STLB RFO          ACCESS:          0 HIT:          0 MISS:          0 MSHR_MERGE:          0
cpu0->cpu0_STLB PREFETCH     ACCESS:          0 HIT:          0 MISS:          0 MSHR_MERGE:          0
cpu0->cpu0_STLB WRITE        ACCESS:          0 HIT:          0 MISS:          0 MSHR_MERGE:          0
cpu0->cpu0_STLB TRANSLATION  ACCESS:          0 HIT:          0 MISS:          0 MSHR_MERGE:          0
cpu0->cpu0_STLB PREFETCH REQUESTED:          0 ISSUED:          0 USEFUL:          0 USELESS:          0
cpu0->cpu0_STLB AVERAGE MISS LATENCY: 706.7 cycles
cpu0->cpu0_L2C TOTAL        ACCESS:     126664 HIT:      44197 MISS:      82467 MSHR_MERGE:          0
cpu0->cpu0_L2C LOAD         ACCESS:      59748 HIT:      15196 MISS:      44552 MSHR_MERGE:          0
cpu0->cpu0_L2C RFO          ACCESS:      29581 HIT:       8921 MISS:      20660 MSHR_MERGE:          0
cpu0->cpu0_L2C PREFETCH     ACCESS:          0 HIT:          0 MISS:          0 MSHR_MERGE:          0
cpu0->cpu0_L2C WRITE        ACCESS:      36758 HIT:      20078 MISS:      16680 MSHR_MERGE:          0
cpu0->cpu0_L2C TRANSLATION  ACCESS:        577 HIT:          2 MISS:        575 MSHR_MERGE:          0
cpu0->cpu0_L2C PREFETCH REQUESTED:          0 ISSUED:          0 USEFUL:          0 USELESS:          0
cpu0->cpu0_L2C AVERAGE MISS LATENCY: 77.46 cycles
cpu0->cpu0_L1I TOTAL        ACCESS:     311508 HIT:     310996 MISS:        512 MSHR_MERGE:        191
cpu0->cpu0_L1I LOAD         ACCESS:     311508 HIT:     310996 MISS:        512 MSHR_MERGE:        191
cpu0->cpu0_L1I RFO          ACCESS:          0 HIT:          0 MISS:          0 MSHR_MERGE:          0
cpu0->cpu0_L1I PREFETCH     ACCESS:          0 HIT:          0 MISS:          0 MSHR_MERGE:          0
cpu0->cpu0_L1I WRITE        ACCESS:          0 HIT:          0 MISS:          0 MSHR_MERGE:          0
cpu0->cpu0_L1I TRANSLATION  ACCESS:          0 HIT:          0 MISS:          0 MSHR_MERGE:          0
cpu0->cpu0_L1I PREFETCH REQUESTED:          0 ISSUED:          0 USEFUL:          0 USELESS:          0
cpu0->cpu0_L1I AVERAGE MISS LATENCY: 213 cycles
cpu0->cpu0_L1D TOTAL        ACCESS:     984906 HIT:     724416 MISS:     260490 MSHR_MERGE:     170905
cpu0->cpu0_L1D LOAD         ACCESS:     663925 HIT:     534527 MISS:     129398 MSHR_MERGE:      69971
cpu0->cpu0_L1D RFO          ACCESS:          0 HIT:          0 MISS:          0 MSHR_MERGE:          0
cpu0->cpu0_L1D PREFETCH     ACCESS:          0 HIT:          0 MISS:          0 MSHR_MERGE:          0
cpu0->cpu0_L1D WRITE        ACCESS:     320102 HIT:     189589 MISS:     130513 MSHR_MERGE:     100932
cpu0->cpu0_L1D TRANSLATION  ACCESS:        879 HIT:        300 MISS:        579 MSHR_MERGE:          2
cpu0->cpu0_L1D PREFETCH REQUESTED:          0 ISSUED:          0 USEFUL:          0 USELESS:          0
cpu0->cpu0_L1D AVERAGE MISS LATENCY: 78.61 cycles
cpu0->cpu0_ITLB TOTAL        ACCESS:     287594 HIT:     287577 MISS:         17 MSHR_MERGE:         12
cpu0->cpu0_ITLB LOAD         ACCESS:     287594 HIT:     287577 MISS:         17 MSHR_MERGE:         12
cpu0->cpu0_ITLB RFO          ACCESS:          0 HIT:          0 MISS:          0 MSHR_MERGE:          0
cpu0->cpu0_ITLB PREFETCH     ACCESS:          0 HIT:          0 MISS:          0 MSHR_MERGE:          0
cpu0->cpu0_ITLB WRITE        ACCESS:          0 HIT:          0 MISS:          0 MSHR_MERGE:          0
cpu0->cpu0_ITLB TRANSLATION  ACCESS:          0 HIT:          0 MISS:          0 MSHR_MERGE:          0
cpu0->cpu0_ITLB PREFETCH REQUESTED:          0 ISSUED:          0 USEFUL:          0 USELESS:          0
cpu0->cpu0_ITLB AVERAGE MISS LATENCY: 723.6 cycles
cpu0->cpu0_DTLB TOTAL        ACCESS:     957049 HIT:     951919 MISS:       5130 MSHR_MERGE:       3564
cpu0->cpu0_DTLB LOAD         ACCESS:     957049 HIT:     951919 MISS:       5130 MSHR_MERGE:       3564
cpu0->cpu0_DTLB RFO          ACCESS:          0 HIT:          0 MISS:          0 MSHR_MERGE:          0
cpu0->cpu0_DTLB PREFETCH     ACCESS:          0 HIT:          0 MISS:          0 MSHR_MERGE:          0
cpu0->cpu0_DTLB WRITE        ACCESS:          0 HIT:          0 MISS:          0 MSHR_MERGE:          0
cpu0->cpu0_DTLB TRANSLATION  ACCESS:          0 HIT:          0 MISS:          0 MSHR_MERGE:          0
cpu0->cpu0_DTLB PREFETCH REQUESTED:          0 ISSUED:          0 USEFUL:          0 USELESS:          0
cpu0->cpu0_DTLB AVERAGE MISS LATENCY: 200.7 cycles
cpu0->LLC TOTAL        ACCESS:      92574 HIT:      63416 MISS:      29158 MSHR_MERGE:          0
cpu0->LLC LOAD         ACCESS:      44552 HIT:      28642 MISS:      15910 MSHR_MERGE:          0
cpu0->LLC RFO          ACCESS:      20660 HIT:       8017 MISS:      12643 MSHR_MERGE:          0
cpu0->LLC PREFETCH     ACCESS:          0 HIT:          0 MISS:          0 MSHR_MERGE:          0
cpu0->LLC WRITE        ACCESS:      26787 HIT:      26752 MISS:         35 MSHR_MERGE:          0
cpu0->LLC TRANSLATION  ACCESS:        575 HIT:          5 MISS:        570 MSHR_MERGE:          0
cpu0->LLC PREFETCH REQUESTED:          0 ISSUED:          0 USEFUL:          0 USELESS:          0
cpu0->LLC AVERAGE MISS LATENCY: 181.9 cycles

DRAM Statistics

Channel 0 RQ ROW_BUFFER_HIT:       3938
  ROW_BUFFER_MISS:      25176
  AVG DBUS CONGESTED CYCLE: 13.26
Channel 0 WQ ROW_BUFFER_HIT:       1220
  ROW_BUFFER_MISS:       3149
  FULL:          0
Channel 0 REFRESHES ISSUED:        495
