[VMEM] WARNING: physical memory size is smaller than virtual memory size.

*** ChampSim Multicore Out-of-Order Simulator ***
Warmup Instructions: 1000000
Simulation Instructions: 5000000
Number of CPUs: 1
Page size: 4096

Off-chip DRAM Size: 16 GiB Channels: 1 Width: 64-bit Data Rate: 3205 MT/s
Warmup finished CPU 0 instructions: 1000002 cycles: 369733 cumulative IPC: 2.705 (Simulation time: 00 hr 00 min 03 sec)
Warmup complete CPU 0 instructions: 1000002 cycles: 369733 cumulative IPC: 2.705 (Simulation time: 00 hr 00 min 03 sec)
Simulation finished CPU 0 instructions: 5000002 cycles: 4121214 cumulative IPC: 1.213 (Simulation time: 00 hr 00 min 27 sec)
Simulation complete CPU 0 instructions: 5000002 cycles: 4121214 cumulative IPC: 1.213 (Simulation time: 00 hr 00 min 27 sec)

ChampSim completed all CPUs

=== Simulation ===
CPU 0 runs traces/628.pop2_s-17B.champsimtrace.xz

Region of Interest Statistics

CPU 0 cumulative IPC: 1.213 instructions: 5000002 cycles: 4121214
CPU 0 Branch Prediction Accuracy: 96.39% MPKI: 4.136 Average ROB Occupancy at Mispredict: 86.62
Branch type MPKI
BRANCH_DIRECT_JUMP: 0.0532
BRANCH_INDIRECT: 0.002
BRANCH_CONDITIONAL: 4.06
BRANCH_DIRECT_CALL: 0.0116
BRANCH_INDIRECT_CALL: 0
BRANCH_RETURN: 0.009

cpu0->cpu0_STLB TOTAL        ACCESS:       4371 HIT:       4098 MISS:        273 MSHR_MERGE:          0
cpu0->cpu0_STLB LOAD         ACCESS:       4371 HIT:       4098 MISS:        273 MSHR_MERGE:          0
cpu0->cpu0_STLB RFO          ACCESS:          0 HIT:          0 MISS:          0 MSHR_MERGE:          0
cpu0->cpu0_STLB PREFETCH     ACCESS:          0 HIT:          0 MISS:          0 MSHR_MERGE:          0
cpu0->cpu0_STLB WRITE        ACCESS:          0 HIT:          0 MISS:          0 MSHR_MERGE:          0
cpu0->cpu0_STLB TRANSLATION  ACCESS:          0 HIT:          0 MISS:          0 MSHR_MERGE:          0
cpu0->cpu0_STLB PREFETCH REQUESTED:          0 ISSUED:          0 USEFUL:          0 USELESS:          0
cpu0->cpu0_STLB AVERAGE MISS LATENCY: 767.6 cycles
cpu0->cpu0_L2C TOTAL        ACCESS:     150223 HIT:     104568 MISS:      45655 MSHR_MERGE:          0
cpu0->cpu0_L2C LOAD         ACCESS:      81705 HIT:      44814 MISS:      36891 MSHR_MERGE:          0
cpu0->cpu0_L2C RFO          ACCESS:      27323 HIT:      22656 MISS:       4667 MSHR_MERGE:          0
cpu0->cpu0_L2C PREFETCH     ACCESS:          0 HIT:          0 MISS:          0 MSHR_MERGE:          0
cpu0->cpu0_L2C WRITE        ACCESS:      40620 HIT:      37059 MISS:       3561 MSHR_MERGE:          0
cpu0->cpu0_L2C TRANSLATION  ACCESS:        575 HIT:         39 MISS:        536 MSHR_MERGE:          0
cpu0->cpu0_L2C PREFETCH REQUESTED:          0 ISSUED:          0 USEFUL:          0 USELESS:          0
cpu0->cpu0_L2C AVERAGE MISS LATENCY: 79.9 cycles
cpu0->cpu0_L1I TOTAL        ACCESS:     374098 HIT:     363424 MISS:      10674 MSHR_MERGE:       4774
cpu0->cpu0_L1I LOAD         ACCESS:     374098 HIT:     363424 MISS:      10674 MSHR_MERGE:       4774
cpu0->cpu0_L1I RFO          ACCESS:          0 HIT:          0 MISS:          0 MSHR_MERGE:          0
cpu0->cpu0_L1I PREFETCH     ACCESS:          0 HIT:          0 MISS:          0 MSHR_MERGE:          0
cpu0->cpu0_L1I WRITE        ACCESS:          0 HIT:          0 MISS:          0 MSHR_MERGE:          0
cpu0->cpu0_L1I TRANSLATION  ACCESS:          0 HIT:          0 MISS:          0 MSHR_MERGE:          0
cpu0->cpu0_L1I PREFETCH REQUESTED:          0 ISSUED:          0 USEFUL:          0 USELESS:          0
cpu0->cpu0_L1I AVERAGE MISS LATENCY: 30.58 cycles
cpu0->cpu0_L1D TOTAL        ACCESS:    1305001 HIT:    1073691 MISS:     231310 MSHR_MERGE:     127607
cpu0->cpu0_L1D LOAD         ACCESS:     925144 HIT:     780244 MISS:     144900 MSHR_MERGE:      69095
cpu0->cpu0_L1D RFO          ACCESS:          0 HIT:          0 MISS:          0 MSHR_MERGE:          0
cpu0->cpu0_L1D PREFETCH     ACCESS:          0 HIT:          0 MISS:          0 MSHR_MERGE:          0
cpu0->cpu0_L1D WRITE        ACCESS:     379220 HIT:     293397 MISS:      85823 MSHR_MERGE:      58500
cpu0->cpu0_L1D TRANSLATION  ACCESS:        637 HIT:         50 MISS:        587 MSHR_MERGE:         12
cpu0->cpu0_L1D PREFETCH REQUESTED:          0 ISSUED:          0 USEFUL:          0 USELESS:          0
cpu0->cpu0_L1D AVERAGE MISS LATENCY: 42.17 cycles
cpu0->cpu0_ITLB TOTAL        ACCESS:     304670 HIT:     304036 MISS:        634 MSHR_MERGE:        386
cpu0->cpu0_ITLB LOAD         ACCESS:     304670 HIT:     304036 MISS:        634 MSHR_MERGE:        386
cpu0->cpu0_ITLB RFO          ACCESS:          0 HIT:          0 MISS:          0 MSHR_MERGE:          0
cpu0->cpu0_ITLB PREFETCH     ACCESS:          0 HIT:          0 MISS:          0 MSHR_MERGE:          0
cpu0->cpu0_ITLB WRITE        ACCESS:          0 HIT:          0 MISS:          0 MSHR_MERGE:          0
cpu0->cpu0_ITLB TRANSLATION  ACCESS:          0 HIT:          0 MISS:          0 MSHR_MERGE:          0
cpu0->cpu0_ITLB PREFETCH REQUESTED:          0 ISSUED:          0 USEFUL:          0 USELESS:          0
cpu0->cpu0_ITLB AVERAGE MISS LATENCY: 30.94 cycles
cpu0->cpu0_DTLB TOTAL        ACCESS:    1256227 HIT:    1249120 MISS:       7107 MSHR_MERGE:       2984
cpu0->cpu0_DTLB LOAD         ACCESS:    1256227 HIT:    1249120 MISS:       7107 MSHR_MERGE:       2984
cpu0->cpu0_DTLB RFO          ACCESS:          0 HIT:          0 MISS:          0 MSHR_MERGE:          0
cpu0->cpu0_DTLB PREFETCH     ACCESS:          0 HIT:          0 MISS:          0 MSHR_MERGE:          0
cpu0->cpu0_DTLB WRITE        ACCESS:          0 HIT:          0 MISS:          0 MSHR_MERGE:          0
cpu0->cpu0_DTLB TRANSLATION  ACCESS:          0 HIT:          0 MISS:          0 MSHR_MERGE:          0
cpu0->cpu0_DTLB PREFETCH REQUESTED:          0 ISSUED:          0 USEFUL:          0 USELESS:          0
cpu0->cpu0_DTLB AVERAGE MISS LATENCY: 54.33 cycles
cpu0->LLC TOTAL        ACCESS:      52179 HIT:      36038 MISS:      16141 MSHR_MERGE:          0
cpu0->LLC LOAD         ACCESS:      36891 HIT:      22408 MISS:      14483 MSHR_MERGE:          0
cpu0->LLC RFO          ACCESS:       4667 HIT:       3433 MISS:       1234 MSHR_MERGE:          0
cpu0->LLC PREFETCH     ACCESS:          0 HIT:          0 MISS:          0 MSHR_MERGE:          0
cpu0->LLC WRITE        ACCESS:      10085 HIT:      10079 MISS:          6 MSHR_MERGE:          0
cpu0->LLC TRANSLATION  ACCESS:        536 HIT:        118 MISS:        418 MSHR_MERGE:          0
cpu0->LLC PREFETCH REQUESTED:          0 ISSUED:          0 USEFUL:          0 USELESS:          0
cpu0->LLC AVERAGE MISS LATENCY: 185 cycles

DRAM Statistics

Channel 0 RQ ROW_BUFFER_HIT:        666
  ROW_BUFFER_MISS:      15469
  AVG DBUS CONGESTED CYCLE: 9.622
Channel 0 WQ ROW_BUFFER_HIT:         83
  ROW_BUFFER_MISS:        136
  FULL:          0
Channel 0 REFRESHES ISSUED:        344
