[VMEM] WARNING: physical memory size is smaller than virtual memory size.

*** ChampSim Multicore Out-of-Order Simulator ***
Warmup Instructions: 1000000
Simulation Instructions: 5000000
Number of CPUs: 1
Page size: 4096

Off-chip DRAM Size: 16 GiB Channels: 1 Width: 64-bit Data Rate: 3205 MT/s
Warmup finished CPU 0 instructions: 1000000 cycles: 433207 cumulative IPC: 2.308 (Simulation time: 00 hr 00 min 04 sec)
Warmup complete CPU 0 instructions: 1000000 cycles: 433207 cumulative IPC: 2.308 (Simulation time: 00 hr 00 min 04 sec)
Simulation finished CPU 0 instructions: 5000002 cycles: 4782796 cumulative IPC: 1.045 (Simulation time: 00 hr 00 min 30 sec)
Simulation complete CPU 0 instructions: 5000002 cycles: 4782796 cumulative IPC: 1.045 (Simulation time: 00 hr 00 min 30 sec)

ChampSim completed all CPUs

=== Simulation ===
CPU 0 runs traces/631.deepsjeng_s-928B.champsimtrace.xz

Region of Interest Statistics

CPU 0 cumulative IPC: 1.045 instructions: 5000002 cycles: 4782796
CPU 0 Branch Prediction Accuracy: 89.78% MPKI: 15.26 Average ROB Occupancy at Mispredict: 28.58
Branch type MPKI
BRANCH_DIRECT_JUMP: 0.0284
BRANCH_INDIRECT: 0.0124
BRANCH_CONDITIONAL: 14.73
BRANCH_DIRECT_CALL: 0.0252
BRANCH_INDIRECT_CALL: 0
BRANCH_RETURN: 0.4634

cpu0->cpu0_STLB TOTAL        ACCESS:       1241 HIT:        408 MISS:        833 MSHR_MERGE:          0
cpu0->cpu0_STLB LOAD         ACCESS:       1241 HIT:        408 MISS:        833 MSHR_MERGE:          0
cpu0->cpu0_STLB RFO          ACCESS:          0 HIT:          0 MISS:          0 MSHR_MERGE:          0
cpu0->cpu0_STLB PREFETCH     ACCESS:          0 HIT:          0 MISS:          0 MSHR_MERGE:          0
cpu0->cpu0_STLB WRITE        ACCESS:          0 HIT:          0 MISS:          0 MSHR_MERGE:          0
cpu0->cpu0_STLB TRANSLATION  ACCESS:          0 HIT:          0 MISS:          0 MSHR_MERGE:          0
cpu0->cpu0_STLB PREFETCH REQUESTED:          0 ISSUED:          0 USEFUL:          0 USELESS:          0
cpu0->cpu0_STLB AVERAGE MISS LATENCY: 1068 cycles
cpu0->cpu0_L2C TOTAL        ACCESS:      13737 HIT:       9640 MISS:       4097 MSHR_MERGE:          0
cpu0->cpu0_L2C LOAD         ACCESS:       7179 HIT:       5614 MISS:       1565 MSHR_MERGE:          0
cpu0->cpu0_L2C RFO          ACCESS:       1572 HIT:       1314 MISS:        258 MSHR_MERGE:          0
cpu0->cpu0_L2C PREFETCH     ACCESS:          0 HIT:          0 MISS:          0 MSHR_MERGE:          0
cpu0->cpu0_L2C WRITE        ACCESS:       2559 HIT:       2522 MISS:         37 MSHR_MERGE:          0
cpu0->cpu0_L2C TRANSLATION  ACCESS:       2427 HIT:        190 MISS:       2237 MSHR_MERGE:          0
cpu0->cpu0_L2C PREFETCH REQUESTED:          0 ISSUED:          0 USEFUL:          0 USELESS:          0
cpu0->cpu0_L2C AVERAGE MISS LATENCY: 174.8 cycles
cpu0->cpu0_L1I TOTAL        ACCESS:     544363 HIT:     538546 MISS:       5817 MSHR_MERGE:       1423
cpu0->cpu0_L1I LOAD         ACCESS:     544363 HIT:     538546 MISS:       5817 MSHR_MERGE:       1423
cpu0->cpu0_L1I RFO          ACCESS:          0 HIT:          0 MISS:          0 MSHR_MERGE:          0
cpu0->cpu0_L1I PREFETCH     ACCESS:          0 HIT:          0 MISS:          0 MSHR_MERGE:          0
cpu0->cpu0_L1I WRITE        ACCESS:          0 HIT:          0 MISS:          0 MSHR_MERGE:          0
cpu0->cpu0_L1I TRANSLATION  ACCESS:          0 HIT:          0 MISS:          0 MSHR_MERGE:          0
cpu0->cpu0_L1I PREFETCH REQUESTED:          0 ISSUED:          0 USEFUL:          0 USELESS:          0
cpu0->cpu0_L1I AVERAGE MISS LATENCY: 11.11 cycles
cpu0->cpu0_L1D TOTAL        ACCESS:    1516648 HIT:    1505882 MISS:      10766 MSHR_MERGE:       3982
cpu0->cpu0_L1D LOAD         ACCESS:     923810 HIT:     919875 MISS:       3935 MSHR_MERGE:       1150
cpu0->cpu0_L1D RFO          ACCESS:          0 HIT:          0 MISS:          0 MSHR_MERGE:          0
cpu0->cpu0_L1D PREFETCH     ACCESS:          0 HIT:          0 MISS:          0 MSHR_MERGE:          0
cpu0->cpu0_L1D WRITE        ACCESS:     590337 HIT:     585938 MISS:       4399 MSHR_MERGE:       2827
cpu0->cpu0_L1D TRANSLATION  ACCESS:       2501 HIT:         69 MISS:       2432 MSHR_MERGE:          5
cpu0->cpu0_L1D PREFETCH REQUESTED:          0 ISSUED:          0 USEFUL:          0 USELESS:          0
cpu0->cpu0_L1D AVERAGE MISS LATENCY: 111.5 cycles
cpu0->cpu0_ITLB TOTAL        ACCESS:     463700 HIT:     463700 MISS:          0 MSHR_MERGE:          0
cpu0->cpu0_ITLB LOAD         ACCESS:     463700 HIT:     463700 MISS:          0 MSHR_MERGE:          0
cpu0->cpu0_ITLB RFO          ACCESS:          0 HIT:          0 MISS:          0 MSHR_MERGE:          0
cpu0->cpu0_ITLB PREFETCH     ACCESS:          0 HIT:          0 MISS:          0 MSHR_MERGE:          0
cpu0->cpu0_ITLB WRITE        ACCESS:          0 HIT:          0 MISS:          0 MSHR_MERGE:          0
cpu0->cpu0_ITLB TRANSLATION  ACCESS:          0 HIT:          0 MISS:          0 MSHR_MERGE:          0
cpu0->cpu0_ITLB PREFETCH REQUESTED:          0 ISSUED:          0 USEFUL:          0 USELESS:          0
cpu0->cpu0_ITLB AVERAGE MISS LATENCY: - cycles
cpu0->cpu0_DTLB TOTAL        ACCESS:    1425146 HIT:    1422801 MISS:       2345 MSHR_MERGE:       1104
cpu0->cpu0_DTLB LOAD         ACCESS:    1425146 HIT:    1422801 MISS:       2345 MSHR_MERGE:       1104
cpu0->cpu0_DTLB RFO          ACCESS:          0 HIT:          0 MISS:          0 MSHR_MERGE:          0
cpu0->cpu0_DTLB PREFETCH     ACCESS:          0 HIT:          0 MISS:          0 MSHR_MERGE:          0
cpu0->cpu0_DTLB WRITE        ACCESS:          0 HIT:          0 MISS:          0 MSHR_MERGE:          0
cpu0->cpu0_DTLB TRANSLATION  ACCESS:          0 HIT:          0 MISS:          0 MSHR_MERGE:          0
cpu0->cpu0_DTLB PREFETCH REQUESTED:          0 ISSUED:          0 USEFUL:          0 USELESS:          0
cpu0->cpu0_DTLB AVERAGE MISS LATENCY: 722.5 cycles
cpu0->LLC TOTAL        ACCESS:       4146 HIT:         98 MISS:       4048 MSHR_MERGE:          0
cpu0->LLC LOAD         ACCESS:       1565 HIT:          7 MISS:       1558 MSHR_MERGE:          0
cpu0->LLC RFO          ACCESS:        258 HIT:          2 MISS:        256 MSHR_MERGE:          0
cpu0->LLC PREFETCH     ACCESS:          0 HIT:          0 MISS:          0 MSHR_MERGE:          0
cpu0->LLC WRITE        ACCESS:         86 HIT:         86 MISS:          0 MSHR_MERGE:          0
cpu0->LLC TRANSLATION  ACCESS:       2237 HIT:          3 MISS:       2234 MSHR_MERGE:          0
cpu0->LLC PREFETCH REQUESTED:          0 ISSUED:          0 USEFUL:          0 USELESS:          0
cpu0->LLC AVERAGE MISS LATENCY: 160.8 cycles

DRAM Statistics

Channel 0 RQ ROW_BUFFER_HIT:          6
  ROW_BUFFER_MISS:       4042
  AVG DBUS CONGESTED CYCLE: 2.946
Channel 0 WQ ROW_BUFFER_HIT:          0
  ROW_BUFFER_MISS:          0
  FULL:          0
Channel 0 REFRESHES ISSUED:        398
