[VMEM] WARNING: physical memory size is smaller than virtual memory size.

*** ChampSim Multicore Out-of-Order Simulator ***
Warmup Instructions: 1000000
Simulation Instructions: 5000000
Number of CPUs: 1
Page size: 4096

Off-chip DRAM Size: 16 GiB Channels: 1 Width: 64-bit Data Rate: 3205 MT/s
Warmup finished CPU 0 instructions: 1000002 cycles: 306017 cumulative IPC: 3.268 (Simulation time: 00 hr 00 min 03 sec)
Warmup complete CPU 0 instructions: 1000002 cycles: 306017 cumulative IPC: 3.268 (Simulation time: 00 hr 00 min 03 sec)
Simulation finished CPU 0 instructions: 5000000 cycles: 4944302 cumulative IPC: 1.011 (Simulation time: 00 hr 00 min 28 sec)
Simulation complete CPU 0 instructions: 5000000 cycles: 4944302 cumulative IPC: 1.011 (Simulation time: 00 hr 00 min 28 sec)

ChampSim completed all CPUs

=== Simulation ===
CPU 0 runs traces/641.leela_s-149B.champsimtrace.xz

Region of Interest Statistics

CPU 0 cumulative IPC: 1.011 instructions: 5000000 cycles: 4944302
CPU 0 Branch Prediction Accuracy: 87.09% MPKI: 21.32 Average ROB Occupancy at Mispredict: 20.17
Branch type MPKI
BRANCH_DIRECT_JUMP: 0.1064
BRANCH_INDIRECT: 0.0016
BRANCH_CONDITIONAL: 21.18
BRANCH_DIRECT_CALL: 0.0034
BRANCH_INDIRECT_CALL: 0
BRANCH_RETURN: 0.0326

cpu0->cpu0_STLB TOTAL        ACCESS:       3080 HIT:       3000 MISS:         80 MSHR_MERGE:          0
cpu0->cpu0_STLB LOAD         ACCESS:       3080 HIT:       3000 MISS:         80 MSHR_MERGE:          0
cpu0->cpu0_STLB RFO          ACCESS:          0 HIT:          0 MISS:          0 MSHR_MERGE:          0
cpu0->cpu0_STLB PREFETCH     ACCESS:          0 HIT:          0 MISS:          0 MSHR_MERGE:          0
cpu0->cpu0_STLB WRITE        ACCESS:          0 HIT:          0 MISS:          0 MSHR_MERGE:          0
cpu0->cpu0_STLB TRANSLATION  ACCESS:          0 HIT:          0 MISS:          0 MSHR_MERGE:          0
cpu0->cpu0_STLB PREFETCH REQUESTED:          0 ISSUED:          0 USEFUL:          0 USELESS:          0
cpu0->cpu0_STLB AVERAGE MISS LATENCY: 753.3 cycles
cpu0->cpu0_L2C TOTAL        ACCESS:      30058 HIT:      29115 MISS:        943 MSHR_MERGE:          0
cpu0->cpu0_L2C LOAD         ACCESS:      18096 HIT:      17373 MISS:        723 MSHR_MERGE:          0
cpu0->cpu0_L2C RFO          ACCESS:       3880 HIT:       3821 MISS:         59 MSHR_MERGE:          0
cpu0->cpu0_L2C PREFETCH     ACCESS:          0 HIT:          0 MISS:          0 MSHR_MERGE:          0
cpu0->cpu0_L2C WRITE        ACCESS:       7921 HIT:       7921 MISS:          0 MSHR_MERGE:          0
cpu0->cpu0_L2C TRANSLATION  ACCESS:        161 HIT:          0 MISS:        161 MSHR_MERGE:          0
cpu0->cpu0_L2C PREFETCH REQUESTED:          0 ISSUED:          0 USEFUL:          0 USELESS:          0
cpu0->cpu0_L2C AVERAGE MISS LATENCY: 171.8 cycles
cpu0->cpu0_L1I TOTAL        ACCESS:     450561 HIT:     448750 MISS:       1811 MSHR_MERGE:        767
cpu0->cpu0_L1I LOAD         ACCESS:     450561 HIT:     448750 MISS:       1811 MSHR_MERGE:        767
cpu0->cpu0_L1I RFO          ACCESS:          0 HIT:          0 MISS:          0 MSHR_MERGE:          0
cpu0->cpu0_L1I PREFETCH     ACCESS:          0 HIT:          0 MISS:          0 MSHR_MERGE:          0
cpu0->cpu0_L1I WRITE        ACCESS:          0 HIT:          0 MISS:          0 MSHR_MERGE:          0
cpu0->cpu0_L1I TRANSLATION  ACCESS:          0 HIT:          0 MISS:          0 MSHR_MERGE:          0
cpu0->cpu0_L1I PREFETCH REQUESTED:          0 ISSUED:          0 USEFUL:          0 USELESS:          0
cpu0->cpu0_L1I AVERAGE MISS LATENCY: 13.19 cycles
cpu0->cpu0_L1D TOTAL        ACCESS:    1390916 HIT:    1359937 MISS:      30979 MSHR_MERGE:       9885
cpu0->cpu0_L1D LOAD         ACCESS:     852657 HIT:     831131 MISS:      21526 MSHR_MERGE:       4473
cpu0->cpu0_L1D RFO          ACCESS:          0 HIT:          0 MISS:          0 MSHR_MERGE:          0
cpu0->cpu0_L1D PREFETCH     ACCESS:          0 HIT:          0 MISS:          0 MSHR_MERGE:          0
cpu0->cpu0_L1D WRITE        ACCESS:     538097 HIT:     528805 MISS:       9292 MSHR_MERGE:       5412
cpu0->cpu0_L1D TRANSLATION  ACCESS:        162 HIT:          1 MISS:        161 MSHR_MERGE:          0
cpu0->cpu0_L1D PREFETCH REQUESTED:          0 ISSUED:          0 USEFUL:          0 USELESS:          0
cpu0->cpu0_L1D AVERAGE MISS LATENCY: 15.43 cycles
cpu0->cpu0_ITLB TOTAL        ACCESS:     396725 HIT:     396725 MISS:          0 MSHR_MERGE:          0
cpu0->cpu0_ITLB LOAD         ACCESS:     396725 HIT:     396725 MISS:          0 MSHR_MERGE:          0
cpu0->cpu0_ITLB RFO          ACCESS:          0 HIT:          0 MISS:          0 MSHR_MERGE:          0
cpu0->cpu0_ITLB PREFETCH     ACCESS:          0 HIT:          0 MISS:          0 MSHR_MERGE:          0
cpu0->cpu0_ITLB WRITE        ACCESS:          0 HIT:          0 MISS:          0 MSHR_MERGE:          0
cpu0->cpu0_ITLB TRANSLATION  ACCESS:          0 HIT:          0 MISS:          0 MSHR_MERGE:          0
cpu0->cpu0_ITLB PREFETCH REQUESTED:          0 ISSUED:          0 USEFUL:          0 USELESS:          0
cpu0->cpu0_ITLB AVERAGE MISS LATENCY: - cycles
cpu0->cpu0_DTLB TOTAL        ACCESS:    1318162 HIT:    1314301 MISS:       3861 MSHR_MERGE:        781
cpu0->cpu0_DTLB LOAD         ACCESS:    1318162 HIT:    1314301 MISS:       3861 MSHR_MERGE:        781
cpu0->cpu0_DTLB RFO          ACCESS:          0 HIT:          0 MISS:          0 MSHR_MERGE:          0
cpu0->cpu0_DTLB PREFETCH     ACCESS:          0 HIT:          0 MISS:          0 MSHR_MERGE:          0
cpu0->cpu0_DTLB WRITE        ACCESS:          0 HIT:          0 MISS:          0 MSHR_MERGE:          0
cpu0->cpu0_DTLB TRANSLATION  ACCESS:          0 HIT:          0 MISS:          0 MSHR_MERGE:          0
cpu0->cpu0_DTLB PREFETCH REQUESTED:          0 ISSUED:          0 USEFUL:          0 USELESS:          0
cpu0->cpu0_DTLB AVERAGE MISS LATENCY: 24.84 cycles
cpu0->LLC TOTAL        ACCESS:        945 HIT:          6 MISS:        939 MSHR_MERGE:          0
cpu0->LLC LOAD         ACCESS:        723 HIT:          3 MISS:        720 MSHR_MERGE:          0
cpu0->LLC RFO          ACCESS:         59 HIT:          1 MISS:         58 MSHR_MERGE:          0
cpu0->LLC PREFETCH     ACCESS:          0 HIT:          0 MISS:          0 MSHR_MERGE:          0
cpu0->LLC WRITE        ACCESS:          2 HIT:          2 MISS:          0 MSHR_MERGE:          0
cpu0->LLC TRANSLATION  ACCESS:        161 HIT:          0 MISS:        161 MSHR_MERGE:          0
cpu0->LLC PREFETCH REQUESTED:          0 ISSUED:          0 USEFUL:          0 USELESS:          0
cpu0->LLC AVERAGE MISS LATENCY: 156.5 cycles

DRAM Statistics

Channel 0 RQ ROW_BUFFER_HIT:          3
  ROW_BUFFER_MISS:        936
  AVG DBUS CONGESTED CYCLE: 2.818
Channel 0 WQ ROW_BUFFER_HIT:          0
  ROW_BUFFER_MISS:          0
  FULL:          0
Channel 0 REFRESHES ISSUED:        412
