[VMEM] WARNING: physical memory size is smaller than virtual memory size.

*** ChampSim Multicore Out-of-Order Simulator ***
Warmup Instructions: 1000000
Simulation Instructions: 5000000
Number of CPUs: 1
Page size: 4096

Off-chip DRAM Size: 16 GiB Channels: 1 Width: 64-bit Data Rate: 3205 MT/s
Warmup finished CPU 0 instructions: 1000003 cycles: 309817 cumulative IPC: 3.228 (Simulation time: 00 hr 00 min 03 sec)
Warmup complete CPU 0 instructions: 1000003 cycles: 309817 cumulative IPC: 3.228 (Simulation time: 00 hr 00 min 03 sec)
Simulation finished CPU 0 instructions: 5000004 cycles: 10302091 cumulative IPC: 0.4853 (Simulation time: 00 hr 01 min 06 sec)
Simulation complete CPU 0 instructions: 5000004 cycles: 10302091 cumulative IPC: 0.4853 (Simulation time: 00 hr 01 min 06 sec)

ChampSim completed all CPUs

=== Simulation ===
CPU 0 runs traces/649.fotonik3d_s-1176B.champsimtrace.xz

Region of Interest Statistics

CPU 0 cumulative IPC: 0.4853 instructions: 5000004 cycles: 10302091
CPU 0 Branch Prediction Accuracy: 99.97% MPKI: 0.0044 Average ROB Occupancy at Mispredict: 352
Branch type MPKI
BRANCH_DIRECT_JUMP: 0
BRANCH_INDIRECT: 0
BRANCH_CONDITIONAL: 0.0044
BRANCH_DIRECT_CALL: 0
BRANCH_INDIRECT_CALL: 0
BRANCH_RETURN: 0

cpu0->cpu0_STLB TOTAL        ACCESS:       1151 HIT:        459 MISS:        692 MSHR_MERGE:          0
cpu0->cpu0_STLB LOAD         ACCESS:       1151 HIT:        459 MISS:        692 MSHR_MERGE:          0
cpu0->cpu0_STLB RFO          ACCESS:          0 HIT:          0 MISS:          0 MSHR_MERGE:          0
cpu0->cpu0_STLB PREFETCH     ACCESS:          0 HIT:          0 MISS:          0 MSHR_MERGE:          0
cpu0->cpu0_STLB WRITE        ACCESS:          0 HIT:          0 MISS:          0 MSHR_MERGE:          0
cpu0->cpu0_STLB TRANSLATION  ACCESS:          0 HIT:          0 MISS:          0 MSHR_MERGE:          0
cpu0->cpu0_STLB PREFETCH REQUESTED:          0 ISSUED:          0 USEFUL:          0 USELESS:          0
cpu0->cpu0_STLB AVERAGE MISS LATENCY: 671.1 cycles
cpu0->cpu0_L2C TOTAL        ACCESS:     110903 HIT:      36842 MISS:      74061 MSHR_MERGE:          0
cpu0->cpu0_L2C LOAD         ACCESS:      66092 HIT:      21235 MISS:      44857 MSHR_MERGE:          0
cpu0->cpu0_L2C RFO          ACCESS:         77 HIT:         77 MISS:          0 MSHR_MERGE:          0
cpu0->cpu0_L2C PREFETCH     ACCESS:          0 HIT:          0 MISS:          0 MSHR_MERGE:          0
cpu0->cpu0_L2C WRITE        ACCESS:      43926 HIT:      15526 MISS:      28400 MSHR_MERGE:          0
cpu0->cpu0_L2C TRANSLATION  ACCESS:        808 HIT:          4 MISS:        804 MSHR_MERGE:          0
cpu0->cpu0_L2C PREFETCH REQUESTED:          0 ISSUED:          0 USEFUL:          0 USELESS:          0
cpu0->cpu0_L2C AVERAGE MISS LATENCY: 113.2 cycles
cpu0->cpu0_L1I TOTAL        ACCESS:     887466 HIT:     887466 MISS:          0 MSHR_MERGE:          0
cpu0->cpu0_L1I LOAD         ACCESS:     887466 HIT:     887466 MISS:          0 MSHR_MERGE:          0
cpu0->cpu0_L1I RFO          ACCESS:          0 HIT:          0 MISS:          0 MSHR_MERGE:          0
cpu0->cpu0_L1I PREFETCH     ACCESS:          0 HIT:          0 MISS:          0 MSHR_MERGE:          0
cpu0->cpu0_L1I WRITE        ACCESS:          0 HIT:          0 MISS:          0 MSHR_MERGE:          0
cpu0->cpu0_L1I TRANSLATION  ACCESS:          0 HIT:          0 MISS:          0 MSHR_MERGE:          0
cpu0->cpu0_L1I PREFETCH REQUESTED:          0 ISSUED:          0 USEFUL:          0 USELESS:          0
cpu0->cpu0_L1I AVERAGE MISS LATENCY: - cycles
cpu0->cpu0_L1D TOTAL        ACCESS:    1535796 HIT:    1282238 MISS:     253558 MSHR_MERGE:     186581
cpu0->cpu0_L1D LOAD         ACCESS:    1183379 HIT:     930878 MISS:     252501 MSHR_MERGE:     186409
cpu0->cpu0_L1D RFO          ACCESS:          0 HIT:          0 MISS:          0 MSHR_MERGE:          0
cpu0->cpu0_L1D PREFETCH     ACCESS:          0 HIT:          0 MISS:          0 MSHR_MERGE:          0
cpu0->cpu0_L1D WRITE        ACCESS:     351027 HIT:     350778 MISS:        249 MSHR_MERGE:        172
cpu0->cpu0_L1D TRANSLATION  ACCESS:       1390 HIT:        582 MISS:        808 MSHR_MERGE:          0
cpu0->cpu0_L1D PREFETCH REQUESTED:          0 ISSUED:          0 USEFUL:          0 USELESS:          0
cpu0->cpu0_L1D AVERAGE MISS LATENCY: 132.1 cycles
cpu0->cpu0_ITLB TOTAL        ACCESS:     712650 HIT:     712650 MISS:          0 MSHR_MERGE:          0
cpu0->cpu0_ITLB LOAD         ACCESS:     712650 HIT:     712650 MISS:          0 MSHR_MERGE:          0
cpu0->cpu0_ITLB RFO          ACCESS:          0 HIT:          0 MISS:          0 MSHR_MERGE:          0
cpu0->cpu0_ITLB PREFETCH     ACCESS:          0 HIT:          0 MISS:          0 MSHR_MERGE:          0
cpu0->cpu0_ITLB WRITE        ACCESS:          0 HIT:          0 MISS:          0 MSHR_MERGE:          0
cpu0->cpu0_ITLB TRANSLATION  ACCESS:          0 HIT:          0 MISS:          0 MSHR_MERGE:          0
cpu0->cpu0_ITLB PREFETCH REQUESTED:          0 ISSUED:          0 USEFUL:          0 USELESS:          0
cpu0->cpu0_ITLB AVERAGE MISS LATENCY: - cycles
cpu0->cpu0_DTLB TOTAL        ACCESS:    1413961 HIT:    1410034 MISS:       3927 MSHR_MERGE:       2776
cpu0->cpu0_DTLB LOAD         ACCESS:    1413961 HIT:    1410034 MISS:       3927 MSHR_MERGE:       2776
cpu0->cpu0_DTLB RFO          ACCESS:          0 HIT:          0 MISS:          0 MSHR_MERGE:          0
cpu0->cpu0_DTLB PREFETCH     ACCESS:          0 HIT:          0 MISS:          0 MSHR_MERGE:          0
cpu0->cpu0_DTLB WRITE        ACCESS:          0 HIT:          0 MISS:          0 MSHR_MERGE:          0
cpu0->cpu0_DTLB TRANSLATION  ACCESS:          0 HIT:          0 MISS:          0 MSHR_MERGE:          0
cpu0->cpu0_DTLB PREFETCH REQUESTED:          0 ISSUED:          0 USEFUL:          0 USELESS:          0
cpu0->cpu0_DTLB AVERAGE MISS LATENCY: 409 cycles
cpu0->LLC TOTAL        ACCESS:      88993 HIT:      44357 MISS:      44636 MSHR_MERGE:          0
cpu0->LLC LOAD         ACCESS:      44857 HIT:       1009 MISS:      43848 MSHR_MERGE:          0
cpu0->LLC RFO          ACCESS:          0 HIT:          0 MISS:          0 MSHR_MERGE:          0
cpu0->LLC PREFETCH     ACCESS:          0 HIT:          0 MISS:          0 MSHR_MERGE:          0
cpu0->LLC WRITE        ACCESS:      43332 HIT:      43331 MISS:          1 MSHR_MERGE:          0
cpu0->LLC TRANSLATION  ACCESS:        804 HIT:         17 MISS:        787 MSHR_MERGE:          0
cpu0->LLC PREFETCH REQUESTED:          0 ISSUED:          0 USEFUL:          0 USELESS:          0
cpu0->LLC AVERAGE MISS LATENCY: 168.9 cycles

DRAM Statistics

Channel 0 RQ ROW_BUFFER_HIT:       8989
  ROW_BUFFER_MISS:      35646
  AVG DBUS CONGESTED CYCLE: 14.76
Channel 0 WQ ROW_BUFFER_HIT:       6340
  ROW_BUFFER_MISS:       9365
  FULL:          0
Channel 0 REFRESHES ISSUED:        859
