[VMEM] WARNING: physical memory size is smaller than virtual memory size.

*** ChampSim Multicore Out-of-Order Simulator ***
Warmup Instructions: 1000000
Simulation Instructions: 5000000
Number of CPUs: 1
Page size: 4096

Off-chip DRAM Size: 16 GiB Channels: 1 Width: 64-bit Data Rate: 3205 MT/s
Warmup finished CPU 0 instructions: 1000002 cycles: 263789 cumulative IPC: 3.791 (Simulation time: 00 hr 00 min 02 sec)
Warmup complete CPU 0 instructions: 1000002 cycles: 263789 cumulative IPC: 3.791 (Simulation time: 00 hr 00 min 02 sec)
Simulation finished CPU 0 instructions: 5000002 cycles: 4640222 cumulative IPC: 1.078 (Simulation time: 00 hr 00 min 35 sec)
Simulation complete CPU 0 instructions: 5000002 cycles: 4640222 cumulative IPC: 1.078 (Simulation time: 00 hr 00 min 35 sec)

ChampSim completed all CPUs

=== Simulation ===
CPU 0 runs traces/654.roms_s-293B.champsimtrace.xz

Region of Interest Statistics

CPU 0 cumulative IPC: 1.078 instructions: 5000002 cycles: 4640222
CPU 0 Branch Prediction Accuracy: 99.77% MPKI: 0.0354 Average ROB Occupancy at Mispredict: 294.6
Branch type MPKI
BRANCH_DIRECT_JUMP: 0.0002
BRANCH_INDIRECT: 0
BRANCH_CONDITIONAL: 0.0352
BRANCH_DIRECT_CALL: 0
BRANCH_INDIRECT_CALL: 0
BRANCH_RETURN: 0

cpu0->cpu0_STLB TOTAL        ACCESS:       1264 HIT:        366 MISS:        898 MSHR_MERGE:          0
cpu0->cpu0_STLB LOAD         ACCESS:       1264 HIT:        366 MISS:        898 MSHR_MERGE:          0
cpu0->cpu0_STLB RFO          ACCESS:          0 HIT:          0 MISS:          0 MSHR_MERGE:          0
cpu0->cpu0_STLB PREFETCH     ACCESS:          0 HIT:          0 MISS:          0 MSHR_MERGE:          0
cpu0->cpu0_STLB WRITE        ACCESS:          0 HIT:          0 MISS:          0 MSHR_MERGE:          0
cpu0->cpu0_STLB TRANSLATION  ACCESS:          0 HIT:          0 MISS:          0 MSHR_MERGE:          0
cpu0->cpu0_STLB PREFETCH REQUESTED:          0 ISSUED:          0 USEFUL:          0 USELESS:          0
cpu0->cpu0_STLB AVERAGE MISS LATENCY: 918.4 cycles
cpu0->cpu0_L2C TOTAL        ACCESS:      96134 HIT:      21514 MISS:      74620 MSHR_MERGE:          0
cpu0->cpu0_L2C LOAD         ACCESS:      43889 HIT:      11080 MISS:      32809 MSHR_MERGE:          0
cpu0->cpu0_L2C RFO          ACCESS:      25180 HIT:        587 MISS:      24593 MSHR_MERGE:          0
cpu0->cpu0_L2C PREFETCH     ACCESS:          0 HIT:          0 MISS:          0 MSHR_MERGE:          0
cpu0->cpu0_L2C WRITE        ACCESS:      25267 HIT:       9790 MISS:      15477 MSHR_MERGE:          0
cpu0->cpu0_L2C TRANSLATION  ACCESS:       1798 HIT:         57 MISS:       1741 MSHR_MERGE:          0
cpu0->cpu0_L2C PREFETCH REQUESTED:          0 ISSUED:          0 USEFUL:          0 USELESS:          0
cpu0->cpu0_L2C AVERAGE MISS LATENCY: 136.8 cycles
cpu0->cpu0_L1I TOTAL        ACCESS:    1010019 HIT:    1009955 MISS:         64 MSHR_MERGE:         22
cpu0->cpu0_L1I LOAD         ACCESS:    1010019 HIT:    1009955 MISS:         64 MSHR_MERGE:         22
cpu0->cpu0_L1I RFO          ACCESS:          0 HIT:          0 MISS:          0 MSHR_MERGE:          0
cpu0->cpu0_L1I PREFETCH     ACCESS:          0 HIT:          0 MISS:          0 MSHR_MERGE:          0
cpu0->cpu0_L1I WRITE        ACCESS:          0 HIT:          0 MISS:          0 MSHR_MERGE:          0
cpu0->cpu0_L1I TRANSLATION  ACCESS:          0 HIT:          0 MISS:          0 MSHR_MERGE:          0
cpu0->cpu0_L1I PREFETCH REQUESTED:          0 ISSUED:          0 USEFUL:          0 USELESS:          0
cpu0->cpu0_L1I AVERAGE MISS LATENCY: 266.4 cycles
cpu0->cpu0_L1D TOTAL        ACCESS:    1593464 HIT:    1417114 MISS:     176350 MSHR_MERGE:     105518
cpu0->cpu0_L1D LOAD         ACCESS:    1139836 HIT:    1064819 MISS:      75017 MSHR_MERGE:      31169
cpu0->cpu0_L1D RFO          ACCESS:          0 HIT:          0 MISS:          0 MSHR_MERGE:          0
cpu0->cpu0_L1D PREFETCH     ACCESS:          0 HIT:          0 MISS:          0 MSHR_MERGE:          0
cpu0->cpu0_L1D WRITE        ACCESS:     451515 HIT:     351990 MISS:      99525 MSHR_MERGE:      74339
cpu0->cpu0_L1D TRANSLATION  ACCESS:       2113 HIT:        305 MISS:       1808 MSHR_MERGE:         10
cpu0->cpu0_L1D PREFETCH REQUESTED:          0 ISSUED:          0 USEFUL:          0 USELESS:          0
cpu0->cpu0_L1D AVERAGE MISS LATENCY: 151.9 cycles
cpu0->cpu0_ITLB TOTAL        ACCESS:     766771 HIT:     766770 MISS:          1 MSHR_MERGE:          0
cpu0->cpu0_ITLB LOAD         ACCESS:     766771 HIT:     766770 MISS:          1 MSHR_MERGE:          0
cpu0->cpu0_ITLB RFO          ACCESS:          0 HIT:          0 MISS:          0 MSHR_MERGE:          0
cpu0->cpu0_ITLB PREFETCH     ACCESS:          0 HIT:          0 MISS:          0 MSHR_MERGE:          0
cpu0->cpu0_ITLB WRITE        ACCESS:          0 HIT:          0 MISS:          0 MSHR_MERGE:          0
cpu0->cpu0_ITLB TRANSLATION  ACCESS:          0 HIT:          0 MISS:          0 MSHR_MERGE:          0
cpu0->cpu0_ITLB PREFETCH REQUESTED:          0 ISSUED:          0 USEFUL:          0 USELESS:          0
cpu0->cpu0_ITLB AVERAGE MISS LATENCY: 691 cycles
cpu0->cpu0_DTLB TOTAL        ACCESS:    1512658 HIT:    1506929 MISS:       5729 MSHR_MERGE:       4466
cpu0->cpu0_DTLB LOAD         ACCESS:    1512658 HIT:    1506929 MISS:       5729 MSHR_MERGE:       4466
cpu0->cpu0_DTLB RFO          ACCESS:          0 HIT:          0 MISS:          0 MSHR_MERGE:          0
cpu0->cpu0_DTLB PREFETCH     ACCESS:          0 HIT:          0 MISS:          0 MSHR_MERGE:          0
cpu0->cpu0_DTLB WRITE        ACCESS:          0 HIT:          0 MISS:          0 MSHR_MERGE:          0
cpu0->cpu0_DTLB TRANSLATION  ACCESS:          0 HIT:          0 MISS:          0 MSHR_MERGE:          0
cpu0->cpu0_DTLB PREFETCH REQUESTED:          0 ISSUED:          0 USEFUL:          0 USELESS:          0
cpu0->cpu0_DTLB AVERAGE MISS LATENCY: 658.1 cycles
cpu0->LLC TOTAL        ACCESS:      84758 HIT:      41120 MISS:      43638 MSHR_MERGE:          0
cpu0->LLC LOAD         ACCESS:      32809 HIT:      14780 MISS:      18029 MSHR_MERGE:          0
cpu0->LLC RFO          ACCESS:      24593 HIT:       1590 MISS:      23003 MSHR_MERGE:          0
cpu0->LLC PREFETCH     ACCESS:          0 HIT:          0 MISS:          0 MSHR_MERGE:          0
cpu0->LLC WRITE        ACCESS:      25615 HIT:      24662 MISS:        953 MSHR_MERGE:          0
cpu0->LLC TRANSLATION  ACCESS:       1741 HIT:         88 MISS:       1653 MSHR_MERGE:          0
cpu0->LLC PREFETCH REQUESTED:          0 ISSUED:          0 USEFUL:          0 USELESS:          0
cpu0->LLC AVERAGE MISS LATENCY: 211.4 cycles

DRAM Statistics

Channel 0 RQ ROW_BUFFER_HIT:        268
  ROW_BUFFER_MISS:      42375
  AVG DBUS CONGESTED CYCLE: 9.384
Channel 0 WQ ROW_BUFFER_HIT:       2267
  ROW_BUFFER_MISS:       4947
  FULL:          0
Channel 0 REFRESHES ISSUED:        387
