[VMEM] WARNING: physical memory size is smaller than virtual memory size.

*** ChampSim Multicore Out-of-Order Simulator ***
Warmup Instructions: 1000000
Simulation Instructions: 5000000
Number of CPUs: 1
Page size: 4096

Off-chip DRAM Size: 16 GiB Channels: 1 Width: 64-bit Data Rate: 3205 MT/s
Warmup finished CPU 0 instructions: 1000002 cycles: 359878 cumulative IPC: 2.779 (Simulation time: 00 hr 00 min 03 sec)
Warmup complete CPU 0 instructions: 1000002 cycles: 359878 cumulative IPC: 2.779 (Simulation time: 00 hr 00 min 03 sec)
Simulation finished CPU 0 instructions: 5000001 cycles: 20884371 cumulative IPC: 0.2394 (Simulation time: 00 hr 01 min 32 sec)
Simulation complete CPU 0 instructions: 5000001 cycles: 20884371 cumulative IPC: 0.2394 (Simulation time: 00 hr 01 min 32 sec)

ChampSim completed all CPUs

=== Simulation ===
CPU 0 runs traces/602.gcc_s-1850B.champsimtrace.xz

Region of Interest Statistics

CPU 0 cumulative IPC: 0.2394 instructions: 5000001 cycles: 20884371
CPU 0 Branch Prediction Accuracy: 92.25% MPKI: 19.87 Average ROB Occupancy at Mispredict: 28.62
Branch type MPKI
BRANCH_DIRECT_JUMP: 0.0202
BRANCH_INDIRECT: 0
BRANCH_CONDITIONAL: 19.85
BRANCH_DIRECT_CALL: 0.0002
BRANCH_INDIRECT_CALL: 0
BRANCH_RETURN: 0.0002

cpu0->cpu0_STLB TOTAL        ACCESS:       1707 HIT:        145 MISS:       1562 MSHR_MERGE:          0
cpu0->cpu0_STLB LOAD         ACCESS:       1707 HIT:        145 MISS:       1562 MSHR_MERGE:          0
cpu0->cpu0_STLB RFO          ACCESS:          0 HIT:          0 MISS:          0 MSHR_MERGE:          0
cpu0->cpu0_STLB PREFETCH     ACCESS:          0 HIT:          0 MISS:          0 MSHR_MERGE:          0
cpu0->cpu0_STLB WRITE        ACCESS:          0 HIT:          0 MISS:          0 MSHR_MERGE:          0
cpu0->cpu0_STLB TRANSLATION  ACCESS:          0 HIT:          0 MISS:          0 MSHR_MERGE:          0
cpu0->cpu0_STLB PREFETCH REQUESTED:          0 ISSUED:          0 USEFUL:          0 USELESS:          0
cpu0->cpu0_STLB AVERAGE MISS LATENCY: 687.7 cycles
cpu0->cpu0_L2C TOTAL        ACCESS:     123475 HIT:      32372 MISS:      91103 MSHR_MERGE:          0
cpu0->cpu0_L2C LOAD         ACCESS:     121153 HIT:      32008 MISS:      89145 MSHR_MERGE:          0
cpu0->cpu0_L2C RFO          ACCESS:          6 HIT:          0 MISS:          6 MSHR_MERGE:          0
cpu0->cpu0_L2C PREFETCH     ACCESS:          0 HIT:          0 MISS:          0 MSHR_MERGE:          0
cpu0->cpu0_L2C WRITE        ACCESS:        320 HIT:        320 MISS:          0 MSHR_MERGE:          0
cpu0->cpu0_L2C TRANSLATION  ACCESS:       1996 HIT:         44 MISS:       1952 MSHR_MERGE:          0
cpu0->cpu0_L2C PREFETCH REQUESTED:          0 ISSUED:          0 USEFUL:          0 USELESS:          0
cpu0->cpu0_L2C AVERAGE MISS LATENCY: 158.6 cycles
cpu0->cpu0_L1I TOTAL        ACCESS:         80 HIT:         80 MISS:          0 MSHR_MERGE:          0
cpu0->cpu0_L1I LOAD         ACCESS:         80 HIT:         80 MISS:          0 MSHR_MERGE:          0
cpu0->cpu0_L1I RFO          ACCESS:          0 HIT:          0 MISS:          0 MSHR_MERGE:          0
cpu0->cpu0_L1I PREFETCH     ACCESS:          0 HIT:          0 MISS:          0 MSHR_MERGE:          0
cpu0->cpu0_L1I WRITE        ACCESS:          0 HIT:          0 MISS:          0 MSHR_MERGE:          0
cpu0->cpu0_L1I TRANSLATION  ACCESS:          0 HIT:          0 MISS:          0 MSHR_MERGE:          0
cpu0->cpu0_L1I PREFETCH REQUESTED:          0 ISSUED:          0 USEFUL:          0 USELESS:          0
cpu0->cpu0_L1I AVERAGE MISS LATENCY: - cycles
cpu0->cpu0_L1D TOTAL        ACCESS:    1494663 HIT:    1282364 MISS:     212299 MSHR_MERGE:      89144
cpu0->cpu0_L1D LOAD         ACCESS:    1060108 HIT:     849812 MISS:     210296 MSHR_MERGE:      89143
cpu0->cpu0_L1D RFO          ACCESS:          0 HIT:          0 MISS:          0 MSHR_MERGE:          0
cpu0->cpu0_L1D PREFETCH     ACCESS:          0 HIT:          0 MISS:          0 MSHR_MERGE:          0
cpu0->cpu0_L1D WRITE        ACCESS:     431403 HIT:     431397 MISS:          6 MSHR_MERGE:          0
cpu0->cpu0_L1D TRANSLATION  ACCESS:       3152 HIT:       1155 MISS:       1997 MSHR_MERGE:          1
cpu0->cpu0_L1D PREFETCH REQUESTED:          0 ISSUED:          0 USEFUL:          0 USELESS:          0
cpu0->cpu0_L1D AVERAGE MISS LATENCY: 126.1 cycles
cpu0->cpu0_ITLB TOTAL        ACCESS:         61 HIT:         61 MISS:          0 MSHR_MERGE:          0
cpu0->cpu0_ITLB LOAD         ACCESS:         61 HIT:         61 MISS:          0 MSHR_MERGE:          0
cpu0->cpu0_ITLB RFO          ACCESS:          0 HIT:          0 MISS:          0 MSHR_MERGE:          0
cpu0->cpu0_ITLB PREFETCH     ACCESS:          0 HIT:          0 MISS:          0 MSHR_MERGE:          0
cpu0->cpu0_ITLB WRITE        ACCESS:          0 HIT:          0 MISS:          0 MSHR_MERGE:          0
cpu0->cpu0_ITLB TRANSLATION  ACCESS:          0 HIT:          0 MISS:          0 MSHR_MERGE:          0
cpu0->cpu0_ITLB PREFETCH REQUESTED:          0 ISSUED:          0 USEFUL:          0 USELESS:          0
cpu0->cpu0_ITLB AVERAGE MISS LATENCY: - cycles
cpu0->cpu0_DTLB TOTAL        ACCESS:    1452875 HIT:    1449499 MISS:       3376 MSHR_MERGE:       1669
cpu0->cpu0_DTLB LOAD         ACCESS:    1452875 HIT:    1449499 MISS:       3376 MSHR_MERGE:       1669
cpu0->cpu0_DTLB RFO          ACCESS:          0 HIT:          0 MISS:          0 MSHR_MERGE:          0
cpu0->cpu0_DTLB PREFETCH     ACCESS:          0 HIT:          0 MISS:          0 MSHR_MERGE:          0
cpu0->cpu0_DTLB WRITE        ACCESS:          0 HIT:          0 MISS:          0 MSHR_MERGE:          0
cpu0->cpu0_DTLB TRANSLATION  ACCESS:          0 HIT:          0 MISS:          0 MSHR_MERGE:          0
cpu0->cpu0_DTLB PREFETCH REQUESTED:          0 ISSUED:          0 USEFUL:          0 USELESS:          0
cpu0->cpu0_DTLB AVERAGE MISS LATENCY: 635.2 cycles
cpu0->LLC TOTAL        ACCESS:      91258 HIT:        304 MISS:      90954 MSHR_MERGE:          0
cpu0->LLC LOAD         ACCESS:      89145 HIT:        141 MISS:      89004 MSHR_MERGE:          0
cpu0->LLC RFO          ACCESS:          6 HIT:          0 MISS:          6 MSHR_MERGE:          0
cpu0->LLC PREFETCH     ACCESS:          0 HIT:          0 MISS:          0 MSHR_MERGE:          0
cpu0->LLC WRITE        ACCESS:        155 HIT:        155 MISS:          0 MSHR_MERGE:          0
cpu0->LLC TRANSLATION  ACCESS:       1952 HIT:          8 MISS:       1944 MSHR_MERGE:          0
cpu0->LLC PREFETCH REQUESTED:          0 ISSUED:          0 USEFUL:          0 USELESS:          0
cpu0->LLC AVERAGE MISS LATENCY: 142.9 cycles

DRAM Statistics

Channel 0 RQ ROW_BUFFER_HIT:      22777
  ROW_BUFFER_MISS:      68177
  AVG DBUS CONGESTED CYCLE: 22.12
Channel 0 WQ ROW_BUFFER_HIT:         50
  ROW_BUFFER_MISS:         79
  FULL:          0
Channel 0 REFRESHES ISSUED:       1741
