[VMEM] WARNING: physical memory size is smaller than virtual memory size.

*** ChampSim Multicore Out-of-Order Simulator ***
Warmup Instructions: 1000000
Simulation Instructions: 5000000
Number of CPUs: 1
Page size: 4096

Off-chip DRAM Size: 16 GiB Channels: 1 Width: 64-bit Data Rate: 3205 MT/s
Warmup finished CPU 0 instructions: 1000000 cycles: 287973 cumulative IPC: 3.473 (Simulation time: 00 hr 00 min 03 sec)
Warmup complete CPU 0 instructions: 1000000 cycles: 287973 cumulative IPC: 3.473 (Simulation time: 00 hr 00 min 03 sec)
Simulation finished CPU 0 instructions: 5000001 cycles: 5727680 cumulative IPC: 0.873 (Simulation time: 00 hr 00 min 39 sec)
Simulation complete CPU 0 instructions: 5000001 cycles: 5727680 cumulative IPC: 0.873 (Simulation time: 00 hr 00 min 39 sec)

ChampSim completed all CPUs

=== Simulation ===
CPU 0 runs traces/603.bwaves_s-2931B.champsimtrace.xz

Region of Interest Statistics

CPU 0 cumulative IPC: 0.873 instructions: 5000001 cycles: 5727680
CPU 0 Branch Prediction Accuracy: 80.62% MPKI: 1.635 Average ROB Occupancy at Mispredict: 296.9
Branch type MPKI
BRANCH_DIRECT_JUMP: 0
BRANCH_INDIRECT: 0
BRANCH_CONDITIONAL: 1.635
BRANCH_DIRECT_CALL: 0
BRANCH_INDIRECT_CALL: 0
BRANCH_RETURN: 0

cpu0->cpu0_STLB TOTAL        ACCESS:       8301 HIT:       7229 MISS:       1072 MSHR_MERGE:          0
cpu0->cpu0_STLB LOAD         ACCESS:       8301 HIT:       7229 MISS:       1072 MSHR_MERGE:          0
cpu0->cpu0_STLB RFO          ACCESS:          0 HIT:          0 MISS:          0 MSHR_MERGE:          0
cpu0->cpu0_STLB PREFETCH     ACCESS:          0 HIT:          0 MISS:          0 MSHR_MERGE:          0
cpu0->cpu0_STLB WRITE        ACCESS:          0 HIT:          0 MISS:          0 MSHR_MERGE:          0
cpu0->cpu0_STLB TRANSLATION  ACCESS:          0 HIT:          0 MISS:          0 MSHR_MERGE:          0
cpu0->cpu0_STLB PREFETCH REQUESTED:          0 ISSUED:          0 USEFUL:          0 USELESS:          0
cpu0->cpu0_STLB AVERAGE MISS LATENCY: 699.6 cycles
cpu0->cpu0_L2C TOTAL        ACCESS:     117324 HIT:      42642 MISS:      74682 MSHR_MERGE:          0
cpu0->cpu0_L2C LOAD         ACCESS:      51800 HIT:       8126 MISS:      43674 MSHR_MERGE:          0
cpu0->cpu0_L2C RFO          ACCESS:      31495 HIT:       1724 MISS:      29771 MSHR_MERGE:          0
cpu0->cpu0_L2C PREFETCH     ACCESS:          0 HIT:          0 MISS:          0 MSHR_MERGE:          0
cpu0->cpu0_L2C WRITE        ACCESS:      31894 HIT:      31892 MISS:          2 MSHR_MERGE:          0
cpu0->cpu0_L2C TRANSLATION  ACCESS:       2135 HIT:        900 MISS:       1235 MSHR_MERGE:          0
cpu0->cpu0_L2C PREFETCH REQUESTED:          0 ISSUED:          0 USEFUL:          0 USELESS:          0
cpu0->cpu0_L2C AVERAGE MISS LATENCY: 224 cycles
cpu0->cpu0_L1I TOTAL        ACCESS:     567328 HIT:     567328 MISS:          0 MSHR_MERGE:          0
cpu0->cpu0_L1I LOAD         ACCESS:     567328 HIT:     567328 MISS:          0 MSHR_MERGE:          0
cpu0->cpu0_L1I RFO          ACCESS:          0 HIT:          0 MISS:          0 MSHR_MERGE:          0
cpu0->cpu0_L1I PREFETCH     ACCESS:          0 HIT:          0 MISS:          0 MSHR_MERGE:          0
cpu0->cpu0_L1I WRITE        ACCESS:          0 HIT:          0 MISS:          0 MSHR_MERGE:          0
cpu0->cpu0_L1I TRANSLATION  ACCESS:          0 HIT:          0 MISS:          0 MSHR_MERGE:          0
cpu0->cpu0_L1I PREFETCH REQUESTED:          0 ISSUED:          0 USEFUL:          0 USELESS:          0
cpu0->cpu0_L1I AVERAGE MISS LATENCY: - cycles
cpu0->cpu0_L1D TOTAL        ACCESS:    1704881 HIT:    1543900 MISS:     160981 MSHR_MERGE:      75516
cpu0->cpu0_L1D LOAD         ACCESS:     788087 HIT:     735634 MISS:      52453 MSHR_MERGE:        650
cpu0->cpu0_L1D RFO          ACCESS:          0 HIT:          0 MISS:          0 MSHR_MERGE:          0
cpu0->cpu0_L1D PREFETCH     ACCESS:          0 HIT:          0 MISS:          0 MSHR_MERGE:          0
cpu0->cpu0_L1D WRITE        ACCESS:     914647 HIT:     808255 MISS:     106392 MSHR_MERGE:      74865
cpu0->cpu0_L1D TRANSLATION  ACCESS:       2147 HIT:         11 MISS:       2136 MSHR_MERGE:          1
cpu0->cpu0_L1D PREFETCH REQUESTED:          0 ISSUED:          0 USEFUL:          0 USELESS:          0
cpu0->cpu0_L1D AVERAGE MISS LATENCY: 204.7 cycles
cpu0->cpu0_ITLB TOTAL        ACCESS:     453748 HIT:     453748 MISS:          0 MSHR_MERGE:          0
cpu0->cpu0_ITLB LOAD         ACCESS:     453748 HIT:     453748 MISS:          0 MSHR_MERGE:          0
cpu0->cpu0_ITLB RFO          ACCESS:          0 HIT:          0 MISS:          0 MSHR_MERGE:          0
cpu0->cpu0_ITLB PREFETCH     ACCESS:          0 HIT:          0 MISS:          0 MSHR_MERGE:          0
cpu0->cpu0_ITLB WRITE        ACCESS:          0 HIT:          0 MISS:          0 MSHR_MERGE:          0
cpu0->cpu0_ITLB TRANSLATION  ACCESS:          0 HIT:          0 MISS:          0 MSHR_MERGE:          0
cpu0->cpu0_ITLB PREFETCH REQUESTED:          0 ISSUED:          0 USEFUL:          0 USELESS:          0
cpu0->cpu0_ITLB AVERAGE MISS LATENCY: - cycles
cpu0->cpu0_DTLB TOTAL        ACCESS:    1575536 HIT:    1566163 MISS:       9373 MSHR_MERGE:       1072
cpu0->cpu0_DTLB LOAD         ACCESS:    1575536 HIT:    1566163 MISS:       9373 MSHR_MERGE:       1072
cpu0->cpu0_DTLB RFO          ACCESS:          0 HIT:          0 MISS:          0 MSHR_MERGE:          0
cpu0->cpu0_DTLB PREFETCH     ACCESS:          0 HIT:          0 MISS:          0 MSHR_MERGE:          0
cpu0->cpu0_DTLB WRITE        ACCESS:          0 HIT:          0 MISS:          0 MSHR_MERGE:          0
cpu0->cpu0_DTLB TRANSLATION  ACCESS:          0 HIT:          0 MISS:          0 MSHR_MERGE:          0
cpu0->cpu0_DTLB PREFETCH REQUESTED:          0 ISSUED:          0 USEFUL:          0 USELESS:          0
cpu0->cpu0_DTLB AVERAGE MISS LATENCY: 95.49 cycles
cpu0->LLC TOTAL        ACCESS:     104532 HIT:      35241 MISS:      69291 MSHR_MERGE:          0
cpu0->LLC LOAD         ACCESS:      43674 HIT:       5394 MISS:      38280 MSHR_MERGE:          0
cpu0->LLC RFO          ACCESS:      29771 HIT:          0 MISS:      29771 MSHR_MERGE:          0
cpu0->LLC PREFETCH     ACCESS:          0 HIT:          0 MISS:          0 MSHR_MERGE:          0
cpu0->LLC WRITE        ACCESS:      29852 HIT:      29847 MISS:          5 MSHR_MERGE:          0
cpu0->LLC TRANSLATION  ACCESS:       1235 HIT:          0 MISS:       1235 MSHR_MERGE:          0
cpu0->LLC PREFETCH REQUESTED:          0 ISSUED:          0 USEFUL:          0 USELESS:          0
cpu0->LLC AVERAGE MISS LATENCY: 224.3 cycles

DRAM Statistics

Channel 0 RQ ROW_BUFFER_HIT:          0
  ROW_BUFFER_MISS:      69286
  AVG DBUS CONGESTED CYCLE: 11.6
Channel 0 WQ ROW_BUFFER_HIT:       8180
  ROW_BUFFER_MISS:      13820
  FULL:          0
Channel 0 REFRESHES ISSUED:        478
