[VMEM] WARNING: physical memory size is smaller than virtual memory size.

*** ChampSim Multicore Out-of-Order Simulator ***
Warmup Instructions: 1000000
Simulation Instructions: 5000000
Number of CPUs: 1
Page size: 4096

Off-chip DRAM Size: 16 GiB Channels: 1 Width: 64-bit Data Rate: 3205 MT/s
Warmup finished CPU 0 instructions: 1000003 cycles: 555505 cumulative IPC: 1.8 (Simulation time: 00 hr 00 min 05 sec)
Warmup complete CPU 0 instructions: 1000003 cycles: 555505 cumulative IPC: 1.8 (Simulation time: 00 hr 00 min 05 sec)
Simulation finished CPU 0 instructions: 5000003 cycles: 20916670 cumulative IPC: 0.239 (Simulation time: 00 hr 02 min 22 sec)
Simulation complete CPU 0 instructions: 5000003 cycles: 20916670 cumulative IPC: 0.239 (Simulation time: 00 hr 02 min 22 sec)

ChampSim completed all CPUs

=== Simulation ===
CPU 0 runs traces/605.mcf_s-1536B.champsimtrace.xz

Region of Interest Statistics

CPU 0 cumulative IPC: 0.239 instructions: 5000003 cycles: 20916670
CPU 0 Branch Prediction Accuracy: 99.97% MPKI: 0.049 Average ROB Occupancy at Mispredict: 177.2
Branch type MPKI
BRANCH_DIRECT_JUMP: 0
BRANCH_INDIRECT: 0
BRANCH_CONDITIONAL: 0.049
BRANCH_DIRECT_CALL: 0
BRANCH_INDIRECT_CALL: 0
BRANCH_RETURN: 0

cpu0->cpu0_STLB TOTAL        ACCESS:     152418 HIT:      40378 MISS:     112040 MSHR_MERGE:          0
cpu0->cpu0_STLB LOAD         ACCESS:     152418 HIT:      40378 MISS:     112040 MSHR_MERGE:          0
cpu0->cpu0_STLB RFO          ACCESS:          0 HIT:          0 MISS:          0 MSHR_MERGE:          0
cpu0->cpu0_STLB PREFETCH     ACCESS:          0 HIT:          0 MISS:          0 MSHR_MERGE:          0
cpu0->cpu0_STLB WRITE        ACCESS:          0 HIT:          0 MISS:          0 MSHR_MERGE:          0
cpu0->cpu0_STLB TRANSLATION  ACCESS:          0 HIT:          0 MISS:          0 MSHR_MERGE:          0
cpu0->cpu0_STLB PREFETCH REQUESTED:          0 ISSUED:          0 USEFUL:          0 USELESS:          0
cpu0->cpu0_STLB AVERAGE MISS LATENCY: 86.38 cycles
cpu0->cpu0_L2C TOTAL        ACCESS:     572490 HIT:     238945 MISS:     333545 MSHR_MERGE:          0
cpu0->cpu0_L2C LOAD         ACCESS:     223223 HIT:      73582 MISS:     149641 MSHR_MERGE:          0
cpu0->cpu0_L2C RFO          ACCESS:      14424 HIT:       3884 MISS:      10540 MSHR_MERGE:          0
cpu0->cpu0_L2C PREFETCH     ACCESS:          0 HIT:          0 MISS:          0 MSHR_MERGE:          0
cpu0->cpu0_L2C WRITE        ACCESS:     111422 HIT:     111420 MISS:          2 MSHR_MERGE:          0
cpu0->cpu0_L2C TRANSLATION  ACCESS:     223421 HIT:      50059 MISS:     173362 MSHR_MERGE:          0
cpu0->cpu0_L2C PREFETCH REQUESTED:          0 ISSUED:          0 USEFUL:          0 USELESS:          0
cpu0->cpu0_L2C AVERAGE MISS LATENCY: 109.7 cycles
cpu0->cpu0_L1I TOTAL        ACCESS:    1111692 HIT:    1111692 MISS:          0 MSHR_MERGE:          0
cpu0->cpu0_L1I LOAD         ACCESS:    1111692 HIT:    1111692 MISS:          0 MSHR_MERGE:          0
cpu0->cpu0_L1I RFO          ACCESS:          0 HIT:          0 MISS:          0 MSHR_MERGE:          0
cpu0->cpu0_L1I PREFETCH     ACCESS:          0 HIT:          0 MISS:          0 MSHR_MERGE:          0
cpu0->cpu0_L1I WRITE        ACCESS:          0 HIT:          0 MISS:          0 MSHR_MERGE:          0
cpu0->cpu0_L1I TRANSLATION  ACCESS:          0 HIT:          0 MISS:          0 MSHR_MERGE:          0
cpu0->cpu0_L1I PREFETCH REQUESTED:          0 ISSUED:          0 USEFUL:          0 USELESS:          0
cpu0->cpu0_L1I AVERAGE MISS LATENCY: - cycles
cpu0->cpu0_L1D TOTAL        ACCESS:    1460785 HIT:     830950 MISS:     629835 MSHR_MERGE:     168765
cpu0->cpu0_L1D LOAD         ACCESS:     997847 HIT:     608104 MISS:     389743 MSHR_MERGE:     166520
cpu0->cpu0_L1D RFO          ACCESS:          0 HIT:          0 MISS:          0 MSHR_MERGE:          0
cpu0->cpu0_L1D PREFETCH     ACCESS:          0 HIT:          0 MISS:          0 MSHR_MERGE:          0
cpu0->cpu0_L1D WRITE        ACCESS:     221714 HIT:     207285 MISS:      14429 MSHR_MERGE:          3
cpu0->cpu0_L1D TRANSLATION  ACCESS:     241224 HIT:      15561 MISS:     225663 MSHR_MERGE:       2242
cpu0->cpu0_L1D PREFETCH REQUESTED:          0 ISSUED:          0 USEFUL:          0 USELESS:          0
cpu0->cpu0_L1D AVERAGE MISS LATENCY: 88.17 cycles
cpu0->cpu0_ITLB TOTAL        ACCESS:     996421 HIT:     996421 MISS:          0 MSHR_MERGE:          0
cpu0->cpu0_ITLB LOAD         ACCESS:     996421 HIT:     996421 MISS:          0 MSHR_MERGE:          0
cpu0->cpu0_ITLB RFO          ACCESS:          0 HIT:          0 MISS:          0 MSHR_MERGE:          0
cpu0->cpu0_ITLB PREFETCH     ACCESS:          0 HIT:          0 MISS:          0 MSHR_MERGE:          0
cpu0->cpu0_ITLB WRITE        ACCESS:          0 HIT:          0 MISS:          0 MSHR_MERGE:          0
cpu0->cpu0_ITLB TRANSLATION  ACCESS:          0 HIT:          0 MISS:          0 MSHR_MERGE:          0
cpu0->cpu0_ITLB PREFETCH REQUESTED:          0 ISSUED:          0 USEFUL:          0 USELESS:          0
cpu0->cpu0_ITLB AVERAGE MISS LATENCY: - cycles
cpu0->cpu0_DTLB TOTAL        ACCESS:    1211681 HIT:     859250 MISS:     352431 MSHR_MERGE:     200014
cpu0->cpu0_DTLB LOAD         ACCESS:    1211681 HIT:     859250 MISS:     352431 MSHR_MERGE:     200014
cpu0->cpu0_DTLB RFO          ACCESS:          0 HIT:          0 MISS:          0 MSHR_MERGE:          0
cpu0->cpu0_DTLB PREFETCH     ACCESS:          0 HIT:          0 MISS:          0 MSHR_MERGE:          0
cpu0->cpu0_DTLB WRITE        ACCESS:          0 HIT:          0 MISS:          0 MSHR_MERGE:          0
cpu0->cpu0_DTLB TRANSLATION  ACCESS:          0 HIT:          0 MISS:          0 MSHR_MERGE:          0
cpu0->cpu0_DTLB PREFETCH REQUESTED:          0 ISSUED:          0 USEFUL:          0 USELESS:          0
cpu0->cpu0_DTLB AVERAGE MISS LATENCY: 69.23 cycles
cpu0->LLC TOTAL        ACCESS:     444455 HIT:     306677 MISS:     137778 MSHR_MERGE:          0
cpu0->LLC LOAD         ACCESS:     149641 HIT:      22574 MISS:     127067 MSHR_MERGE:          0
cpu0->LLC RFO          ACCESS:      10540 HIT:      10540 MISS:          0 MSHR_MERGE:          0
cpu0->LLC PREFETCH     ACCESS:          0 HIT:          0 MISS:          0 MSHR_MERGE:          0
cpu0->LLC WRITE        ACCESS:     110912 HIT:     110807 MISS:        105 MSHR_MERGE:          0
cpu0->LLC TRANSLATION  ACCESS:     173362 HIT:     162756 MISS:      10606 MSHR_MERGE:          0
cpu0->LLC PREFETCH REQUESTED:          0 ISSUED:          0 USEFUL:          0 USELESS:          0
cpu0->LLC AVERAGE MISS LATENCY: 228.2 cycles

DRAM Statistics

Channel 0 RQ ROW_BUFFER_HIT:         31
  ROW_BUFFER_MISS:     137644
  AVG DBUS CONGESTED CYCLE: 5.942
Channel 0 WQ ROW_BUFFER_HIT:      35900
  ROW_BUFFER_MISS:      73625
  FULL:          0
Channel 0 REFRESHES ISSUED:       1743
