[VMEM] WARNING: physical memory size is smaller than virtual memory size.

*** ChampSim Multicore Out-of-Order Simulator ***
Warmup Instructions: 1000000
Simulation Instructions: 5000000
Number of CPUs: 1
Page size: 4096

Off-chip DRAM Size: 16 GiB Channels: 1 Width: 64-bit Data Rate: 3205 MT/s
Warmup finished CPU 0 instructions: 1000002 cycles: 313031 cumulative IPC: 3.195 (Simulation time: 00 hr 00 min 03 sec)
Warmup complete CPU 0 instructions: 1000002 cycles: 313031 cumulative IPC: 3.195 (Simulation time: 00 hr 00 min 03 sec)
Simulation finished CPU 0 instructions: 5000003 cycles: 2943884 cumulative IPC: 1.698 (Simulation time: 00 hr 00 min 29 sec)
Simulation complete CPU 0 instructions: 5000003 cycles: 2943884 cumulative IPC: 1.698 (Simulation time: 00 hr 00 min 29 sec)

ChampSim completed all CPUs

=== Simulation ===
CPU 0 runs traces/607.cactuBSSN_s-2421B.champsimtrace.xz

Region of Interest Statistics

CPU 0 cumulative IPC: 1.698 instructions: 5000003 cycles: 2943884
CPU 0 Branch Prediction Accuracy: 91.82% MPKI: 0.7284 Average ROB Occupancy at Mispredict: 318.6
Branch type MPKI
BRANCH_DIRECT_JUMP: 0
BRANCH_INDIRECT: 0
BRANCH_CONDITIONAL: 0.3648
BRANCH_DIRECT_CALL: 0
BRANCH_INDIRECT_CALL: 0
BRANCH_RETURN: 0.3636

cpu0->cpu0_STLB TOTAL        ACCESS:     191705 HIT:     191487 MISS:        218 MSHR_MERGE:          0
cpu0->cpu0_STLB LOAD         ACCESS:     191705 HIT:     191487 MISS:        218 MSHR_MERGE:          0
cpu0->cpu0_STLB RFO          ACCESS:          0 HIT:          0 MISS:          0 MSHR_MERGE:          0
cpu0->cpu0_STLB PREFETCH     ACCESS:          0 HIT:          0 MISS:          0 MSHR_MERGE:          0
cpu0->cpu0_STLB WRITE        ACCESS:          0 HIT:          0 MISS:          0 MSHR_MERGE:          0
cpu0->cpu0_STLB TRANSLATION  ACCESS:          0 HIT:          0 MISS:          0 MSHR_MERGE:          0
cpu0->cpu0_STLB PREFETCH REQUESTED:          0 ISSUED:          0 USEFUL:          0 USELESS:          0
cpu0->cpu0_STLB AVERAGE MISS LATENCY: 838.4 cycles
cpu0->cpu0_L2C TOTAL        ACCESS:     532175 HIT:     502176 MISS:      29999 MSHR_MERGE:          0
cpu0->cpu0_L2C LOAD         ACCESS:     467232 HIT:     441221 MISS:      26011 MSHR_MERGE:          0
cpu0->cpu0_L2C RFO          ACCESS:      30614 HIT:      27155 MISS:       3459 MSHR_MERGE:          0
cpu0->cpu0_L2C PREFETCH     ACCESS:          0 HIT:          0 MISS:          0 MSHR_MERGE:          0
cpu0->cpu0_L2C WRITE        ACCESS:      33785 HIT:      33772 MISS:         13 MSHR_MERGE:          0
cpu0->cpu0_L2C TRANSLATION  ACCESS:        544 HIT:         28 MISS:        516 MSHR_MERGE:          0
cpu0->cpu0_L2C PREFETCH REQUESTED:          0 ISSUED:          0 USEFUL:          0 USELESS:          0
cpu0->cpu0_L2C AVERAGE MISS LATENCY: 112.5 cycles
cpu0->cpu0_L1I TOTAL        ACCESS:    1094640 HIT:     841079 MISS:     253561 MSHR_MERGE:     123566
cpu0->cpu0_L1I LOAD         ACCESS:    1094640 HIT:     841079 MISS:     253561 MSHR_MERGE:     123566
cpu0->cpu0_L1I RFO          ACCESS:          0 HIT:          0 MISS:          0 MSHR_MERGE:          0
cpu0->cpu0_L1I PREFETCH     ACCESS:          0 HIT:          0 MISS:          0 MSHR_MERGE:          0
cpu0->cpu0_L1I WRITE        ACCESS:          0 HIT:          0 MISS:          0 MSHR_MERGE:          0
cpu0->cpu0_L1I TRANSLATION  ACCESS:          0 HIT:          0 MISS:          0 MSHR_MERGE:          0
cpu0->cpu0_L1I PREFETCH REQUESTED:          0 ISSUED:          0 USEFUL:          0 USELESS:          0
cpu0->cpu0_L1I AVERAGE MISS LATENCY: 7.095 cycles
cpu0->cpu0_L1D TOTAL        ACCESS:    1907152 HIT:    1514745 MISS:     392407 MSHR_MERGE:      24003
cpu0->cpu0_L1D LOAD         ACCESS:    1506126 HIT:    1148469 MISS:     357657 MSHR_MERGE:      20414
cpu0->cpu0_L1D RFO          ACCESS:          0 HIT:          0 MISS:          0 MSHR_MERGE:          0
cpu0->cpu0_L1D PREFETCH     ACCESS:          0 HIT:          0 MISS:          0 MSHR_MERGE:          0
cpu0->cpu0_L1D WRITE        ACCESS:     400480 HIT:     366274 MISS:      34206 MSHR_MERGE:       3589
cpu0->cpu0_L1D TRANSLATION  ACCESS:        546 HIT:          2 MISS:        544 MSHR_MERGE:          0
cpu0->cpu0_L1D PREFETCH REQUESTED:          0 ISSUED:          0 USEFUL:          0 USELESS:          0
cpu0->cpu0_L1D AVERAGE MISS LATENCY: 18.53 cycles
cpu0->cpu0_ITLB TOTAL        ACCESS:     872638 HIT:     872638 MISS:          0 MSHR_MERGE:          0
cpu0->cpu0_ITLB LOAD         ACCESS:     872638 HIT:     872638 MISS:          0 MSHR_MERGE:          0
cpu0->cpu0_ITLB RFO          ACCESS:          0 HIT:          0 MISS:          0 MSHR_MERGE:          0
cpu0->cpu0_ITLB PREFETCH     ACCESS:          0 HIT:          0 MISS:          0 MSHR_MERGE:          0
cpu0->cpu0_ITLB WRITE        ACCESS:          0 HIT:          0 MISS:          0 MSHR_MERGE:          0
cpu0->cpu0_ITLB TRANSLATION  ACCESS:          0 HIT:          0 MISS:          0 MSHR_MERGE:          0
cpu0->cpu0_ITLB PREFETCH REQUESTED:          0 ISSUED:          0 USEFUL:          0 USELESS:          0
cpu0->cpu0_ITLB AVERAGE MISS LATENCY: - cycles
cpu0->cpu0_DTLB TOTAL        ACCESS:    1802860 HIT:    1589336 MISS:     213524 MSHR_MERGE:      21819
cpu0->cpu0_DTLB LOAD         ACCESS:    1802860 HIT:    1589336 MISS:     213524 MSHR_MERGE:      21819
cpu0->cpu0_DTLB RFO          ACCESS:          0 HIT:          0 MISS:          0 MSHR_MERGE:          0
cpu0->cpu0_DTLB PREFETCH     ACCESS:          0 HIT:          0 MISS:          0 MSHR_MERGE:          0
cpu0->cpu0_DTLB WRITE        ACCESS:          0 HIT:          0 MISS:          0 MSHR_MERGE:          0
cpu0->cpu0_DTLB TRANSLATION  ACCESS:          0 HIT:          0 MISS:          0 MSHR_MERGE:          0
cpu0->cpu0_DTLB PREFETCH REQUESTED:          0 ISSUED:          0 USEFUL:          0 USELESS:          0
cpu0->cpu0_DTLB AVERAGE MISS LATENCY: 5.997 cycles
cpu0->LLC TOTAL        ACCESS:      32987 HIT:      19572 MISS:      13415 MSHR_MERGE:          0
cpu0->LLC LOAD         ACCESS:      26011 HIT:      15887 MISS:      10124 MSHR_MERGE:          0
cpu0->LLC RFO          ACCESS:       3452 HIT:        527 MISS:       2925 MSHR_MERGE:          0
cpu0->LLC PREFETCH     ACCESS:          0 HIT:          0 MISS:          0 MSHR_MERGE:          0
cpu0->LLC WRITE        ACCESS:       3008 HIT:       3008 MISS:          0 MSHR_MERGE:          0
cpu0->LLC TRANSLATION  ACCESS:        516 HIT:        150 MISS:        366 MSHR_MERGE:          0
cpu0->LLC PREFETCH REQUESTED:          0 ISSUED:          0 USEFUL:          0 USELESS:          0
cpu0->LLC AVERAGE MISS LATENCY: 217 cycles

DRAM Statistics

Channel 0 RQ ROW_BUFFER_HIT:          0
  ROW_BUFFER_MISS:      13415
  AVG DBUS CONGESTED CYCLE: 3.931
Channel 0 WQ ROW_BUFFER_HIT:         16
  ROW_BUFFER_MISS:         68
  FULL:          0
Channel 0 REFRESHES ISSUED:        245
