[VMEM] WARNING: physical memory size is smaller than virtual memory size.

*** ChampSim Multicore Out-of-Order Simulator ***
Warmup Instructions: 1000000
Simulation Instructions: 5000000
Number of CPUs: 1
Page size: 4096

Off-chip DRAM Size: 16 GiB Channels: 1 Width: 64-bit Data Rate: 3205 MT/s
Warmup finished CPU 0 instructions: 1000001 cycles: 335808 cumulative IPC: 2.978 (Simulation time: 00 hr 00 min 03 sec)
Warmup complete CPU 0 instructions: 1000001 cycles: 335808 cumulative IPC: 2.978 (Simulation time: 00 hr 00 min 03 sec)
Simulation finished CPU 0 instructions: 5000000 cycles: 11094576 cumulative IPC: 0.4507 (Simulation time: 00 hr 01 min 25 sec)
Simulation complete CPU 0 instructions: 5000000 cycles: 11094576 cumulative IPC: 0.4507 (Simulation time: 00 hr 01 min 25 sec)

ChampSim completed all CPUs

=== Simulation ===
CPU 0 runs traces/619.lbm_s-2676B.champsimtrace.xz

Region of Interest Statistics

CPU 0 cumulative IPC: 0.4507 instructions: 5000000 cycles: 11094576
CPU 0 Branch Prediction Accuracy: 95.45% MPKI: 0.7996 Average ROB Occupancy at Mispredict: 213.6
Branch type MPKI
BRANCH_DIRECT_JUMP: 0
BRANCH_INDIRECT: 0
BRANCH_CONDITIONAL: 0.7996
BRANCH_DIRECT_CALL: 0
BRANCH_INDIRECT_CALL: 0
BRANCH_RETURN: 0

cpu0->cpu0_STLB TOTAL        ACCESS:       6665 HIT:       3049 MISS:       3616 MSHR_MERGE:          0
cpu0->cpu0_STLB LOAD         ACCESS:       6665 HIT:       3049 MISS:       3616 MSHR_MERGE:          0
cpu0->cpu0_STLB RFO          ACCESS:          0 HIT:          0 MISS:          0 MSHR_MERGE:          0
cpu0->cpu0_STLB PREFETCH     ACCESS:          0 HIT:          0 MISS:          0 MSHR_MERGE:          0
cpu0->cpu0_STLB WRITE        ACCESS:          0 HIT:          0 MISS:          0 MSHR_MERGE:          0
cpu0->cpu0_STLB TRANSLATION  ACCESS:          0 HIT:          0 MISS:          0 MSHR_MERGE:          0
cpu0->cpu0_STLB PREFETCH REQUESTED:          0 ISSUED:          0 USEFUL:          0 USELESS:          0
cpu0->cpu0_STLB AVERAGE MISS LATENCY: 1137 cycles
cpu0->cpu0_L2C TOTAL        ACCESS:     714447 HIT:     470440 MISS:     244007 MSHR_MERGE:          0
cpu0->cpu0_L2C LOAD         ACCESS:      57859 HIT:          0 MISS:      57859 MSHR_MERGE:          0
cpu0->cpu0_L2C RFO          ACCESS:     326259 HIT:     144192 MISS:     182067 MSHR_MERGE:          0
cpu0->cpu0_L2C PREFETCH     ACCESS:          0 HIT:          0 MISS:          0 MSHR_MERGE:          0
cpu0->cpu0_L2C WRITE        ACCESS:     326253 HIT:     326248 MISS:          5 MSHR_MERGE:          0
cpu0->cpu0_L2C TRANSLATION  ACCESS:       4076 HIT:          0 MISS:       4076 MSHR_MERGE:          0
cpu0->cpu0_L2C PREFETCH REQUESTED:          0 ISSUED:          0 USEFUL:          0 USELESS:          0
cpu0->cpu0_L2C AVERAGE MISS LATENCY: 481.6 cycles
cpu0->cpu0_L1I TOTAL        ACCESS:     785071 HIT:     785071 MISS:          0 MSHR_MERGE:          0
cpu0->cpu0_L1I LOAD         ACCESS:     785071 HIT:     785071 MISS:          0 MSHR_MERGE:          0
cpu0->cpu0_L1I RFO          ACCESS:          0 HIT:          0 MISS:          0 MSHR_MERGE:          0
cpu0->cpu0_L1I PREFETCH     ACCESS:          0 HIT:          0 MISS:          0 MSHR_MERGE:          0
cpu0->cpu0_L1I WRITE        ACCESS:          0 HIT:          0 MISS:          0 MSHR_MERGE:          0
cpu0->cpu0_L1I TRANSLATION  ACCESS:          0 HIT:          0 MISS:          0 MSHR_MERGE:          0
cpu0->cpu0_L1I PREFETCH REQUESTED:          0 ISSUED:          0 USEFUL:          0 USELESS:          0
cpu0->cpu0_L1I AVERAGE MISS LATENCY: - cycles
cpu0->cpu0_L1D TOTAL        ACCESS:    1231849 HIT:     754504 MISS:     477345 MSHR_MERGE:      89142
cpu0->cpu0_L1D LOAD         ACCESS:     316014 HIT:     185586 MISS:     130428 MSHR_MERGE:      72569
cpu0->cpu0_L1D RFO          ACCESS:          0 HIT:          0 MISS:          0 MSHR_MERGE:          0
cpu0->cpu0_L1D PREFETCH     ACCESS:          0 HIT:          0 MISS:          0 MSHR_MERGE:          0
cpu0->cpu0_L1D WRITE        ACCESS:     908595 HIT:     565754 MISS:     342841 MSHR_MERGE:      16573
cpu0->cpu0_L1D TRANSLATION  ACCESS:       7240 HIT:       3164 MISS:       4076 MSHR_MERGE:          0
cpu0->cpu0_L1D PREFETCH REQUESTED:          0 ISSUED:          0 USEFUL:          0 USELESS:          0
cpu0->cpu0_L1D AVERAGE MISS LATENCY: 312.3 cycles
cpu0->cpu0_ITLB TOTAL        ACCESS:     582047 HIT:     582047 MISS:          0 MSHR_MERGE:          0
cpu0->cpu0_ITLB LOAD         ACCESS:     582047 HIT:     582047 MISS:          0 MSHR_MERGE:          0
cpu0->cpu0_ITLB RFO          ACCESS:          0 HIT:          0 MISS:          0 MSHR_MERGE:          0
cpu0->cpu0_ITLB PREFETCH     ACCESS:          0 HIT:          0 MISS:          0 MSHR_MERGE:          0
cpu0->cpu0_ITLB WRITE        ACCESS:          0 HIT:          0 MISS:          0 MSHR_MERGE:          0
cpu0->cpu0_ITLB TRANSLATION  ACCESS:          0 HIT:          0 MISS:          0 MSHR_MERGE:          0
cpu0->cpu0_ITLB PREFETCH REQUESTED:          0 ISSUED:          0 USEFUL:          0 USELESS:          0
cpu0->cpu0_ITLB AVERAGE MISS LATENCY: - cycles
cpu0->cpu0_DTLB TOTAL        ACCESS:    1155550 HIT:    1131150 MISS:      24400 MSHR_MERGE:      17735
cpu0->cpu0_DTLB LOAD         ACCESS:    1155550 HIT:    1131150 MISS:      24400 MSHR_MERGE:      17735
cpu0->cpu0_DTLB RFO          ACCESS:          0 HIT:          0 MISS:          0 MSHR_MERGE:          0
cpu0->cpu0_DTLB PREFETCH     ACCESS:          0 HIT:          0 MISS:          0 MSHR_MERGE:          0
cpu0->cpu0_DTLB WRITE        ACCESS:          0 HIT:          0 MISS:          0 MSHR_MERGE:          0
cpu0->cpu0_DTLB TRANSLATION  ACCESS:          0 HIT:          0 MISS:          0 MSHR_MERGE:          0
cpu0->cpu0_DTLB PREFETCH REQUESTED:          0 ISSUED:          0 USEFUL:          0 USELESS:          0
cpu0->cpu0_DTLB AVERAGE MISS LATENCY: 622.4 cycles
cpu0->LLC TOTAL        ACCESS:     426183 HIT:     190681 MISS:     235502 MSHR_MERGE:          0
cpu0->LLC LOAD         ACCESS:      57859 HIT:          1 MISS:      57858 MSHR_MERGE:          0
cpu0->LLC RFO          ACCESS:     182066 HIT:       8508 MISS:     173558 MSHR_MERGE:          0
cpu0->LLC PREFETCH     ACCESS:          0 HIT:          0 MISS:          0 MSHR_MERGE:          0
cpu0->LLC WRITE        ACCESS:     182182 HIT:     182170 MISS:         12 MSHR_MERGE:          0
cpu0->LLC TRANSLATION  ACCESS:       4076 HIT:          2 MISS:       4074 MSHR_MERGE:          0
cpu0->LLC PREFETCH REQUESTED:          0 ISSUED:          0 USEFUL:          0 USELESS:          0
cpu0->LLC AVERAGE MISS LATENCY: 482.3 cycles

DRAM Statistics

Channel 0 RQ ROW_BUFFER_HIT:      12513
  ROW_BUFFER_MISS:     222962
  AVG DBUS CONGESTED CYCLE: 7.266
Channel 0 WQ ROW_BUFFER_HIT:      27438
  ROW_BUFFER_MISS:     145248
  FULL:          0
Channel 0 REFRESHES ISSUED:        925
