[VMEM] WARNING: physical memory size is smaller than virtual memory size.

*** ChampSim Multicore Out-of-Order Simulator ***
Warmup Instructions: 1000000
Simulation Instructions: 5000000
Number of CPUs: 1
Page size: 4096

Off-chip DRAM Size: 16 GiB Channels: 1 Width: 64-bit Data Rate: 3205 MT/s
Warmup finished CPU 0 instructions: 1000002 cycles: 782741 cumulative IPC: 1.278 (Simulation time: 00 hr 00 min 06 sec)
Warmup complete CPU 0 instructions: 1000002 cycles: 782741 cumulative IPC: 1.278 (Simulation time: 00 hr 00 min 06 sec)
Simulation finished CPU 0 instructions: 5000004 cycles: 21494248 cumulative IPC: 0.2326 (Simulation time: 00 hr 01 min 46 sec)
Simulation complete CPU 0 instructions: 5000004 cycles: 21494248 cumulative IPC: 0.2326 (Simulation time: 00 hr 01 min 46 sec)

ChampSim completed all CPUs

=== Simulation ===
CPU 0 runs traces/620.omnetpp_s-141B.champsimtrace.xz

Region of Interest Statistics

CPU 0 cumulative IPC: 0.2326 instructions: 5000004 cycles: 21494248
CPU 0 Branch Prediction Accuracy: 93.13% MPKI: 14.39 Average ROB Occupancy at Mispredict: 43.26
Branch type MPKI
BRANCH_DIRECT_JUMP: 0.8132
BRANCH_INDIRECT: 0.3712
BRANCH_CONDITIONAL: 11.89
BRANCH_DIRECT_CALL: 0.0072
BRANCH_INDIRECT_CALL: 0.8716
BRANCH_RETURN: 0.4386

cpu0->cpu0_STLB TOTAL        ACCESS:     111764 HIT:      86478 MISS:      25286 MSHR_MERGE:          0
cpu0->cpu0_STLB LOAD         ACCESS:     111764 HIT:      86478 MISS:      25286 MSHR_MERGE:          0
cpu0->cpu0_STLB RFO          ACCESS:          0 HIT:          0 MISS:          0 MSHR_MERGE:          0
cpu0->cpu0_STLB PREFETCH     ACCESS:          0 HIT:          0 MISS:          0 MSHR_MERGE:          0
cpu0->cpu0_STLB WRITE        ACCESS:          0 HIT:          0 MISS:          0 MSHR_MERGE:          0
cpu0->cpu0_STLB TRANSLATION  ACCESS:          0 HIT:          0 MISS:          0 MSHR_MERGE:          0
cpu0->cpu0_STLB PREFETCH REQUESTED:          0 ISSUED:          0 USEFUL:          0 USELESS:          0
cpu0->cpu0_STLB AVERAGE MISS LATENCY: 486.7 cycles
cpu0->cpu0_L2C TOTAL        ACCESS:     206608 HIT:      90484 MISS:     116124 MSHR_MERGE:          0
cpu0->cpu0_L2C LOAD         ACCESS:      89504 HIT:      25910 MISS:      63594 MSHR_MERGE:          0
cpu0->cpu0_L2C RFO          ACCESS:      12206 HIT:       2400 MISS:       9806 MSHR_MERGE:          0
cpu0->cpu0_L2C PREFETCH     ACCESS:          0 HIT:          0 MISS:          0 MSHR_MERGE:          0
cpu0->cpu0_L2C WRITE        ACCESS:      48518 HIT:      48394 MISS:        124 MSHR_MERGE:          0
cpu0->cpu0_L2C TRANSLATION  ACCESS:      56380 HIT:      13780 MISS:      42600 MSHR_MERGE:          0
cpu0->cpu0_L2C PREFETCH REQUESTED:          0 ISSUED:          0 USEFUL:          0 USELESS:          0
cpu0->cpu0_L2C AVERAGE MISS LATENCY: 153.4 cycles
cpu0->cpu0_L1I TOTAL        ACCESS:     676284 HIT:     671541 MISS:       4743 MSHR_MERGE:       1217
cpu0->cpu0_L1I LOAD         ACCESS:     676284 HIT:     671541 MISS:       4743 MSHR_MERGE:       1217
cpu0->cpu0_L1I RFO          ACCESS:          0 HIT:          0 MISS:          0 MSHR_MERGE:          0
cpu0->cpu0_L1I PREFETCH     ACCESS:          0 HIT:          0 MISS:          0 MSHR_MERGE:          0
cpu0->cpu0_L1I WRITE        ACCESS:          0 HIT:          0 MISS:          0 MSHR_MERGE:          0
cpu0->cpu0_L1I TRANSLATION  ACCESS:          0 HIT:          0 MISS:          0 MSHR_MERGE:          0
cpu0->cpu0_L1I PREFETCH REQUESTED:          0 ISSUED:          0 USEFUL:          0 USELESS:          0
cpu0->cpu0_L1I AVERAGE MISS LATENCY: 18.46 cycles
cpu0->cpu0_L1D TOTAL        ACCESS:    2039077 HIT:    1834179 MISS:     204898 MSHR_MERGE:      50334
cpu0->cpu0_L1D LOAD         ACCESS:    1066812 HIT:     956775 MISS:     110037 MSHR_MERGE:      24059
cpu0->cpu0_L1D RFO          ACCESS:          0 HIT:          0 MISS:          0 MSHR_MERGE:          0
cpu0->cpu0_L1D PREFETCH     ACCESS:          0 HIT:          0 MISS:          0 MSHR_MERGE:          0
cpu0->cpu0_L1D WRITE        ACCESS:     911211 HIT:     872883 MISS:      38328 MSHR_MERGE:      26122
cpu0->cpu0_L1D TRANSLATION  ACCESS:      61054 HIT:       4521 MISS:      56533 MSHR_MERGE:        153
cpu0->cpu0_L1D PREFETCH REQUESTED:          0 ISSUED:          0 USEFUL:          0 USELESS:          0
cpu0->cpu0_L1D AVERAGE MISS LATENCY: 123.8 cycles
cpu0->cpu0_ITLB TOTAL        ACCESS:     596680 HIT:     581531 MISS:      15149 MSHR_MERGE:       7339
cpu0->cpu0_ITLB LOAD         ACCESS:     596680 HIT:     581531 MISS:      15149 MSHR_MERGE:       7339
cpu0->cpu0_ITLB RFO          ACCESS:          0 HIT:          0 MISS:          0 MSHR_MERGE:          0
cpu0->cpu0_ITLB PREFETCH     ACCESS:          0 HIT:          0 MISS:          0 MSHR_MERGE:          0
cpu0->cpu0_ITLB WRITE        ACCESS:          0 HIT:          0 MISS:          0 MSHR_MERGE:          0
cpu0->cpu0_ITLB TRANSLATION  ACCESS:          0 HIT:          0 MISS:          0 MSHR_MERGE:          0
cpu0->cpu0_ITLB PREFETCH REQUESTED:          0 ISSUED:          0 USEFUL:          0 USELESS:          0
cpu0->cpu0_ITLB AVERAGE MISS LATENCY: 9.166 cycles
cpu0->cpu0_DTLB TOTAL        ACCESS:    1882220 HIT:    1760608 MISS:     121612 MSHR_MERGE:      17658
cpu0->cpu0_DTLB LOAD         ACCESS:    1882220 HIT:    1760608 MISS:     121612 MSHR_MERGE:      17658
cpu0->cpu0_DTLB RFO          ACCESS:          0 HIT:          0 MISS:          0 MSHR_MERGE:          0
cpu0->cpu0_DTLB PREFETCH     ACCESS:          0 HIT:          0 MISS:          0 MSHR_MERGE:          0
cpu0->cpu0_DTLB WRITE        ACCESS:          0 HIT:          0 MISS:          0 MSHR_MERGE:          0
cpu0->cpu0_DTLB TRANSLATION  ACCESS:          0 HIT:          0 MISS:          0 MSHR_MERGE:          0
cpu0->cpu0_DTLB PREFETCH REQUESTED:          0 ISSUED:          0 USEFUL:          0 USELESS:          0
cpu0->cpu0_DTLB AVERAGE MISS LATENCY: 123.3 cycles
cpu0->LLC TOTAL        ACCESS:     153060 HIT:      67243 MISS:      85817 MSHR_MERGE:          0
cpu0->LLC LOAD         ACCESS:      63594 HIT:      14440 MISS:      49154 MSHR_MERGE:          0
cpu0->LLC RFO          ACCESS:       9806 HIT:       3369 MISS:       6437 MSHR_MERGE:          0
cpu0->LLC PREFETCH     ACCESS:          0 HIT:          0 MISS:          0 MSHR_MERGE:          0
cpu0->LLC WRITE        ACCESS:      37060 HIT:      36910 MISS:        150 MSHR_MERGE:          0
cpu0->LLC TRANSLATION  ACCESS:      42600 HIT:      12524 MISS:      30076 MSHR_MERGE:          0
cpu0->LLC PREFETCH REQUESTED:          0 ISSUED:          0 USEFUL:          0 USELESS:          0
cpu0->LLC AVERAGE MISS LATENCY: 186.3 cycles

DRAM Statistics

Channel 0 RQ ROW_BUFFER_HIT:        276
  ROW_BUFFER_MISS:      85391
  AVG DBUS CONGESTED CYCLE: 19.93
Channel 0 WQ ROW_BUFFER_HIT:       6660
  ROW_BUFFER_MISS:      15969
  FULL:          0
Channel 0 REFRESHES ISSUED:       1791
