[VMEM] WARNING: physical memory size is smaller than virtual memory size.

*** ChampSim Multicore Out-of-Order Simulator ***
Warmup Instructions: 1000000
Simulation Instructions: 5000000
Number of CPUs: 1
Page size: 4096

Off-chip DRAM Size: 16 GiB Channels: 1 Width: 64-bit Data Rate: 3205 MT/s
Warmup finished CPU 0 instructions: 1000002 cycles: 319522 cumulative IPC: 3.13 (Simulation time: 00 hr 00 min 02 sec)
Warmup complete CPU 0 instructions: 1000002 cycles: 319522 cumulative IPC: 3.13 (Simulation time: 00 hr 00 min 02 sec)
Simulation finished CPU 0 instructions: 5000000 cycles: 6034810 cumulative IPC: 0.8285 (Simulation time: 00 hr 00 min 36 sec)
Simulation complete CPU 0 instructions: 5000000 cycles: 6034810 cumulative IPC: 0.8285 (Simulation time: 00 hr 00 min 36 sec)

ChampSim completed all CPUs

=== Simulation ===
CPU 0 runs traces/627.cam4_s-490B.champsimtrace.xz

Region of Interest Statistics

CPU 0 cumulative IPC: 0.8285 instructions: 5000000 cycles: 6034810
CPU 0 Branch Prediction Accuracy: 88.15% MPKI: 11.81 Average ROB Occupancy at Mispredict: 27.88
Branch type MPKI
BRANCH_DIRECT_JUMP: 0.0106
BRANCH_INDIRECT: 0.0004
BRANCH_CONDITIONAL: 11.76
BRANCH_DIRECT_CALL: 0.0174
BRANCH_INDIRECT_CALL: 0
BRANCH_RETURN: 0.0168

cpu0->cpu0_STLB TOTAL        ACCESS:       1571 HIT:       1133 MISS:        438 MSHR_MERGE:          0
cpu0->cpu0_STLB LOAD         ACCESS:       1571 HIT:       1133 MISS:        438 MSHR_MERGE:          0
cpu0->cpu0_STLB RFO          ACCESS:          0 HIT:          0 MISS:          0 MSHR_MERGE:          0
cpu0->cpu0_STLB PREFETCH     ACCESS:          0 HIT:          0 MISS:          0 MSHR_MERGE:          0
cpu0->cpu0_STLB WRITE        ACCESS:          0 HIT:          0 MISS:          0 MSHR_MERGE:          0
cpu0->cpu0_STLB TRANSLATION  ACCESS:          0 HIT:          0 MISS:          0 MSHR_MERGE:          0
cpu0->cpu0_STLB PREFETCH REQUESTED:          0 ISSUED:          0 USEFUL:          0 USELESS:          0
cpu0->cpu0_STLB AVERAGE MISS LATENCY: 702.3 cycles
cpu0->cpu0_L2C TOTAL        ACCESS:     126662 HIT:      61451 MISS:      65211 MSHR_MERGE:          0
cpu0->cpu0_L2C LOAD         ACCESS:      59748 HIT:      24530 MISS:      35218 MSHR_MERGE:          0
cpu0->cpu0_L2C RFO          ACCESS:      29581 HIT:        221 MISS:      29360 MSHR_MERGE:          0
cpu0->cpu0_L2C PREFETCH     ACCESS:          0 HIT:          0 MISS:          0 MSHR_MERGE:          0
cpu0->cpu0_L2C WRITE        ACCESS:      36757 HIT:      36697 MISS:         60 MSHR_MERGE:          0
cpu0->cpu0_L2C TRANSLATION  ACCESS:        576 HIT:          3 MISS:        573 MSHR_MERGE:          0
cpu0->cpu0_L2C PREFETCH REQUESTED:          0 ISSUED:          0 USEFUL:          0 USELESS:          0
cpu0->cpu0_L2C AVERAGE MISS LATENCY: 117.5 cycles
cpu0->cpu0_L1I TOTAL        ACCESS:     312907 HIT:     312386 MISS:        521 MSHR_MERGE:        200
cpu0->cpu0_L1I LOAD         ACCESS:     312907 HIT:     312386 MISS:        521 MSHR_MERGE:        200
cpu0->cpu0_L1I RFO          ACCESS:          0 HIT:          0 MISS:          0 MSHR_MERGE:          0
cpu0->cpu0_L1I PREFETCH     ACCESS:          0 HIT:          0 MISS:          0 MSHR_MERGE:          0
cpu0->cpu0_L1I WRITE        ACCESS:          0 HIT:          0 MISS:          0 MSHR_MERGE:          0
cpu0->cpu0_L1I TRANSLATION  ACCESS:          0 HIT:          0 MISS:          0 MSHR_MERGE:          0
cpu0->cpu0_L1I PREFETCH REQUESTED:          0 ISSUED:          0 USEFUL:          0 USELESS:          0
cpu0->cpu0_L1I AVERAGE MISS LATENCY: 219.2 cycles
cpu0->cpu0_L1D TOTAL        ACCESS:     987680 HIT:     712439 MISS:     275241 MSHR_MERGE:     185657
cpu0->cpu0_L1D LOAD         ACCESS:     666658 HIT:     538226 MISS:     128432 MSHR_MERGE:      69005
cpu0->cpu0_L1D RFO          ACCESS:          0 HIT:          0 MISS:          0 MSHR_MERGE:          0
cpu0->cpu0_L1D PREFETCH     ACCESS:          0 HIT:          0 MISS:          0 MSHR_MERGE:          0
cpu0->cpu0_L1D WRITE        ACCESS:     320143 HIT:     173912 MISS:     146231 MSHR_MERGE:     116650
cpu0->cpu0_L1D TRANSLATION  ACCESS:        879 HIT:        301 MISS:        578 MSHR_MERGE:          2
cpu0->cpu0_L1D PREFETCH REQUESTED:          0 ISSUED:          0 USEFUL:          0 USELESS:          0
cpu0->cpu0_L1D AVERAGE MISS LATENCY: 93.57 cycles
cpu0->cpu0_ITLB TOTAL        ACCESS:     288832 HIT:     288815 MISS:         17 MSHR_MERGE:         12
cpu0->cpu0_ITLB LOAD         ACCESS:     288832 HIT:     288815 MISS:         17 MSHR_MERGE:         12
cpu0->cpu0_ITLB RFO          ACCESS:          0 HIT:          0 MISS:          0 MSHR_MERGE:          0
cpu0->cpu0_ITLB PREFETCH     ACCESS:          0 HIT:          0 MISS:          0 MSHR_MERGE:          0
cpu0->cpu0_ITLB WRITE        ACCESS:          0 HIT:          0 MISS:          0 MSHR_MERGE:          0
cpu0->cpu0_ITLB TRANSLATION  ACCESS:          0 HIT:          0 MISS:          0 MSHR_MERGE:          0
cpu0->cpu0_ITLB PREFETCH REQUESTED:          0 ISSUED:          0 USEFUL:          0 USELESS:          0
cpu0->cpu0_ITLB AVERAGE MISS LATENCY: 725.4 cycles
cpu0->cpu0_DTLB TOTAL        ACCESS:     960732 HIT:     955600 MISS:       5132 MSHR_MERGE:       3566
cpu0->cpu0_DTLB LOAD         ACCESS:     960732 HIT:     955600 MISS:       5132 MSHR_MERGE:       3566
cpu0->cpu0_DTLB RFO          ACCESS:          0 HIT:          0 MISS:          0 MSHR_MERGE:          0
cpu0->cpu0_DTLB PREFETCH     ACCESS:          0 HIT:          0 MISS:          0 MSHR_MERGE:          0
cpu0->cpu0_DTLB WRITE        ACCESS:          0 HIT:          0 MISS:          0 MSHR_MERGE:          0
cpu0->cpu0_DTLB TRANSLATION  ACCESS:          0 HIT:          0 MISS:          0 MSHR_MERGE:          0
cpu0->cpu0_DTLB PREFETCH REQUESTED:          0 ISSUED:          0 USEFUL:          0 USELESS:          0
cpu0->cpu0_DTLB AVERAGE MISS LATENCY: 199.4 cycles
cpu0->LLC TOTAL        ACCESS:      96618 HIT:      63987 MISS:      32631 MSHR_MERGE:          0
cpu0->LLC LOAD         ACCESS:      35218 HIT:      19131 MISS:      16087 MSHR_MERGE:          0
cpu0->LLC RFO          ACCESS:      29360 HIT:      13385 MISS:      15975 MSHR_MERGE:          0
cpu0->LLC PREFETCH     ACCESS:          0 HIT:          0 MISS:          0 MSHR_MERGE:          0
cpu0->LLC WRITE        ACCESS:      31467 HIT:      31467 MISS:          0 MSHR_MERGE:          0
cpu0->LLC TRANSLATION  ACCESS:        573 HIT:          4 MISS:        569 MSHR_MERGE:          0
cpu0->LLC PREFETCH REQUESTED:          0 ISSUED:          0 USEFUL:          0 USELESS:          0
cpu0->LLC AVERAGE MISS LATENCY: 203.9 cycles

DRAM Statistics

Channel 0 RQ ROW_BUFFER_HIT:       3605
  ROW_BUFFER_MISS:      29021
  AVG DBUS CONGESTED CYCLE: 10.62
Channel 0 WQ ROW_BUFFER_HIT:       2566
  ROW_BUFFER_MISS:       6574
  FULL:          0
Channel 0 REFRESHES ISSUED:        503
