[VMEM] WARNING: physical memory size is smaller than virtual memory size.

*** ChampSim Multicore Out-of-Order Simulator ***
Warmup Instructions: 1000000
Simulation Instructions: 5000000
Number of CPUs: 1
Page size: 4096

Off-chip DRAM Size: 16 GiB Channels: 1 Width: 64-bit Data Rate: 3205 MT/s
Warmup finished CPU 0 instructions: 1000002 cycles: 369538 cumulative IPC: 2.706 (Simulation time: 00 hr 00 min 03 sec)
Warmup complete CPU 0 instructions: 1000002 cycles: 369538 cumulative IPC: 2.706 (Simulation time: 00 hr 00 min 03 sec)
Simulation finished CPU 0 instructions: 5000002 cycles: 4132680 cumulative IPC: 1.21 (Simulation time: 00 hr 00 min 28 sec)
Simulation complete CPU 0 instructions: 5000002 cycles: 4132680 cumulative IPC: 1.21 (Simulation time: 00 hr 00 min 28 sec)

ChampSim completed all CPUs

=== Simulation ===
CPU 0 runs traces/628.pop2_s-17B.champsimtrace.xz

Region of Interest Statistics

CPU 0 cumulative IPC: 1.21 instructions: 5000002 cycles: 4132680
CPU 0 Branch Prediction Accuracy: 96.39% MPKI: 4.136 Average ROB Occupancy at Mispredict: 86.81
Branch type MPKI
BRANCH_DIRECT_JUMP: 0.0532
BRANCH_INDIRECT: 0.002
BRANCH_CONDITIONAL: 4.06
BRANCH_DIRECT_CALL: 0.0116
BRANCH_INDIRECT_CALL: 0
BRANCH_RETURN: 0.009

cpu0->cpu0_STLB TOTAL        ACCESS:       4371 HIT:       4098 MISS:        273 MSHR_MERGE:          0
cpu0->cpu0_STLB LOAD         ACCESS:       4371 HIT:       4098 MISS:        273 MSHR_MERGE:          0
cpu0->cpu0_STLB RFO          ACCESS:          0 HIT:          0 MISS:          0 MSHR_MERGE:          0
cpu0->cpu0_STLB PREFETCH     ACCESS:          0 HIT:          0 MISS:          0 MSHR_MERGE:          0
cpu0->cpu0_STLB WRITE        ACCESS:          0 HIT:          0 MISS:          0 MSHR_MERGE:          0
cpu0->cpu0_STLB TRANSLATION  ACCESS:          0 HIT:          0 MISS:          0 MSHR_MERGE:          0
cpu0->cpu0_STLB PREFETCH REQUESTED:          0 ISSUED:          0 USEFUL:          0 USELESS:          0
cpu0->cpu0_STLB AVERAGE MISS LATENCY: 758 cycles
cpu0->cpu0_L2C TOTAL        ACCESS:     150221 HIT:     104381 MISS:      45840 MSHR_MERGE:          0
cpu0->cpu0_L2C LOAD         ACCESS:      81708 HIT:      47240 MISS:      34468 MSHR_MERGE:          0
cpu0->cpu0_L2C RFO          ACCESS:      27323 HIT:      16506 MISS:      10817 MSHR_MERGE:          0
cpu0->cpu0_L2C PREFETCH     ACCESS:          0 HIT:          0 MISS:          0 MSHR_MERGE:          0
cpu0->cpu0_L2C WRITE        ACCESS:      40616 HIT:      40594 MISS:         22 MSHR_MERGE:          0
cpu0->cpu0_L2C TRANSLATION  ACCESS:        574 HIT:         41 MISS:        533 MSHR_MERGE:          0
cpu0->cpu0_L2C PREFETCH REQUESTED:          0 ISSUED:          0 USEFUL:          0 USELESS:          0
cpu0->cpu0_L2C AVERAGE MISS LATENCY: 81.15 cycles
cpu0->cpu0_L1I TOTAL        ACCESS:     372957 HIT:     362291 MISS:      10666 MSHR_MERGE:       4766
cpu0->cpu0_L1I LOAD         ACCESS:     372957 HIT:     362291 MISS:      10666 MSHR_MERGE:       4766
cpu0->cpu0_L1I RFO          ACCESS:          0 HIT:          0 MISS:          0 MSHR_MERGE:          0
cpu0->cpu0_L1I PREFETCH     ACCESS:          0 HIT:          0 MISS:          0 MSHR_MERGE:          0
cpu0->cpu0_L1I WRITE        ACCESS:          0 HIT:          0 MISS:          0 MSHR_MERGE:          0
cpu0->cpu0_L1I TRANSLATION  ACCESS:          0 HIT:          0 MISS:          0 MSHR_MERGE:          0
cpu0->cpu0_L1I PREFETCH REQUESTED:          0 ISSUED:          0 USEFUL:          0 USELESS:          0
cpu0->cpu0_L1I AVERAGE MISS LATENCY: 33.36 cycles
cpu0->cpu0_L1D TOTAL        ACCESS:    1305741 HIT:    1071056 MISS:     234685 MSHR_MERGE:     130980
cpu0->cpu0_L1D LOAD         ACCESS:     925864 HIT:     782555 MISS:     143309 MSHR_MERGE:      67501
cpu0->cpu0_L1D RFO          ACCESS:          0 HIT:          0 MISS:          0 MSHR_MERGE:          0
cpu0->cpu0_L1D PREFETCH     ACCESS:          0 HIT:          0 MISS:          0 MSHR_MERGE:          0
cpu0->cpu0_L1D WRITE        ACCESS:     379242 HIT:     288451 MISS:      90791 MSHR_MERGE:      63468
cpu0->cpu0_L1D TRANSLATION  ACCESS:        635 HIT:         50 MISS:        585 MSHR_MERGE:         11
cpu0->cpu0_L1D PREFETCH REQUESTED:          0 ISSUED:          0 USEFUL:          0 USELESS:          0
cpu0->cpu0_L1D AVERAGE MISS LATENCY: 42.88 cycles
cpu0->cpu0_ITLB TOTAL        ACCESS:     303554 HIT:     302925 MISS:        629 MSHR_MERGE:        381
cpu0->cpu0_ITLB LOAD         ACCESS:     303554 HIT:     302925 MISS:        629 MSHR_MERGE:        381
cpu0->cpu0_ITLB RFO          ACCESS:          0 HIT:          0 MISS:          0 MSHR_MERGE:          0
cpu0->cpu0_ITLB PREFETCH     ACCESS:          0 HIT:          0 MISS:          0 MSHR_MERGE:          0
cpu0->cpu0_ITLB WRITE        ACCESS:          0 HIT:          0 MISS:          0 MSHR_MERGE:          0
cpu0->cpu0_ITLB TRANSLATION  ACCESS:          0 HIT:          0 MISS:          0 MSHR_MERGE:          0
cpu0->cpu0_ITLB PREFETCH REQUESTED:          0 ISSUED:          0 USEFUL:          0 USELESS:          0
cpu0->cpu0_ITLB AVERAGE MISS LATENCY: 30.31 cycles
cpu0->cpu0_DTLB TOTAL        ACCESS:    1256968 HIT:    1249895 MISS:       7073 MSHR_MERGE:       2950
cpu0->cpu0_DTLB LOAD         ACCESS:    1256968 HIT:    1249895 MISS:       7073 MSHR_MERGE:       2950
cpu0->cpu0_DTLB RFO          ACCESS:          0 HIT:          0 MISS:          0 MSHR_MERGE:          0
cpu0->cpu0_DTLB PREFETCH     ACCESS:          0 HIT:          0 MISS:          0 MSHR_MERGE:          0
cpu0->cpu0_DTLB WRITE        ACCESS:          0 HIT:          0 MISS:          0 MSHR_MERGE:          0
cpu0->cpu0_DTLB TRANSLATION  ACCESS:          0 HIT:          0 MISS:          0 MSHR_MERGE:          0
cpu0->cpu0_DTLB PREFETCH REQUESTED:          0 ISSUED:          0 USEFUL:          0 USELESS:          0
cpu0->cpu0_DTLB AVERAGE MISS LATENCY: 53.74 cycles
cpu0->LLC TOTAL        ACCESS:      62903 HIT:      46746 MISS:      16157 MSHR_MERGE:          0
cpu0->LLC LOAD         ACCESS:      34468 HIT:      19972 MISS:      14496 MSHR_MERGE:          0
cpu0->LLC RFO          ACCESS:      10817 HIT:       9577 MISS:       1240 MSHR_MERGE:          0
cpu0->LLC PREFETCH     ACCESS:          0 HIT:          0 MISS:          0 MSHR_MERGE:          0
cpu0->LLC WRITE        ACCESS:      17085 HIT:      17083 MISS:          2 MSHR_MERGE:          0
cpu0->LLC TRANSLATION  ACCESS:        533 HIT:        114 MISS:        419 MSHR_MERGE:          0
cpu0->LLC PREFETCH REQUESTED:          0 ISSUED:          0 USEFUL:          0 USELESS:          0
cpu0->LLC AVERAGE MISS LATENCY: 186.7 cycles

DRAM Statistics

Channel 0 RQ ROW_BUFFER_HIT:        627
  ROW_BUFFER_MISS:      15528
  AVG DBUS CONGESTED CYCLE: 10.92
Channel 0 WQ ROW_BUFFER_HIT:        201
  ROW_BUFFER_MISS:        384
  FULL:          0
Channel 0 REFRESHES ISSUED:        345
