[VMEM] WARNING: physical memory size is smaller than virtual memory size.

*** ChampSim Multicore Out-of-Order Simulator ***
Warmup Instructions: 1000000
Simulation Instructions: 5000000
Number of CPUs: 1
Page size: 4096

Off-chip DRAM Size: 16 GiB Channels: 1 Width: 64-bit Data Rate: 3205 MT/s
Warmup finished CPU 0 instructions: 1000003 cycles: 309797 cumulative IPC: 3.228 (Simulation time: 00 hr 00 min 03 sec)
Warmup complete CPU 0 instructions: 1000003 cycles: 309797 cumulative IPC: 3.228 (Simulation time: 00 hr 00 min 03 sec)
Simulation finished CPU 0 instructions: 5000004 cycles: 10921416 cumulative IPC: 0.4578 (Simulation time: 00 hr 01 min 11 sec)
Simulation complete CPU 0 instructions: 5000004 cycles: 10921416 cumulative IPC: 0.4578 (Simulation time: 00 hr 01 min 11 sec)

ChampSim completed all CPUs

=== Simulation ===
CPU 0 runs traces/649.fotonik3d_s-1176B.champsimtrace.xz

Region of Interest Statistics

CPU 0 cumulative IPC: 0.4578 instructions: 5000004 cycles: 10921416
CPU 0 Branch Prediction Accuracy: 99.97% MPKI: 0.0044 Average ROB Occupancy at Mispredict: 352
Branch type MPKI
BRANCH_DIRECT_JUMP: 0
BRANCH_INDIRECT: 0
BRANCH_CONDITIONAL: 0.0044
BRANCH_DIRECT_CALL: 0
BRANCH_INDIRECT_CALL: 0
BRANCH_RETURN: 0

cpu0->cpu0_STLB TOTAL        ACCESS:       1151 HIT:        459 MISS:        692 MSHR_MERGE:          0
cpu0->cpu0_STLB LOAD         ACCESS:       1151 HIT:        459 MISS:        692 MSHR_MERGE:          0
cpu0->cpu0_STLB RFO          ACCESS:          0 HIT:          0 MISS:          0 MSHR_MERGE:          0
cpu0->cpu0_STLB PREFETCH     ACCESS:          0 HIT:          0 MISS:          0 MSHR_MERGE:          0
cpu0->cpu0_STLB WRITE        ACCESS:          0 HIT:          0 MISS:          0 MSHR_MERGE:          0
cpu0->cpu0_STLB TRANSLATION  ACCESS:          0 HIT:          0 MISS:          0 MSHR_MERGE:          0
cpu0->cpu0_STLB PREFETCH REQUESTED:          0 ISSUED:          0 USEFUL:          0 USELESS:          0
cpu0->cpu0_STLB AVERAGE MISS LATENCY: 669.3 cycles
cpu0->cpu0_L2C TOTAL        ACCESS:     110903 HIT:      62612 MISS:      48291 MSHR_MERGE:          0
cpu0->cpu0_L2C LOAD         ACCESS:      66092 HIT:      18599 MISS:      47493 MSHR_MERGE:          0
cpu0->cpu0_L2C RFO          ACCESS:         77 HIT:         69 MISS:          8 MSHR_MERGE:          0
cpu0->cpu0_L2C PREFETCH     ACCESS:          0 HIT:          0 MISS:          0 MSHR_MERGE:          0
cpu0->cpu0_L2C WRITE        ACCESS:      43926 HIT:      43926 MISS:          0 MSHR_MERGE:          0
cpu0->cpu0_L2C TRANSLATION  ACCESS:        808 HIT:         18 MISS:        790 MSHR_MERGE:          0
cpu0->cpu0_L2C PREFETCH REQUESTED:          0 ISSUED:          0 USEFUL:          0 USELESS:          0
cpu0->cpu0_L2C AVERAGE MISS LATENCY: 185.7 cycles
cpu0->cpu0_L1I TOTAL        ACCESS:     887970 HIT:     887970 MISS:          0 MSHR_MERGE:          0
cpu0->cpu0_L1I LOAD         ACCESS:     887970 HIT:     887970 MISS:          0 MSHR_MERGE:          0
cpu0->cpu0_L1I RFO          ACCESS:          0 HIT:          0 MISS:          0 MSHR_MERGE:          0
cpu0->cpu0_L1I PREFETCH     ACCESS:          0 HIT:          0 MISS:          0 MSHR_MERGE:          0
cpu0->cpu0_L1I WRITE        ACCESS:          0 HIT:          0 MISS:          0 MSHR_MERGE:          0
cpu0->cpu0_L1I TRANSLATION  ACCESS:          0 HIT:          0 MISS:          0 MSHR_MERGE:          0
cpu0->cpu0_L1I PREFETCH REQUESTED:          0 ISSUED:          0 USEFUL:          0 USELESS:          0
cpu0->cpu0_L1I AVERAGE MISS LATENCY: - cycles
cpu0->cpu0_L1D TOTAL        ACCESS:    1539117 HIT:    1284547 MISS:     254570 MSHR_MERGE:     187593
cpu0->cpu0_L1D LOAD         ACCESS:    1186700 HIT:     933171 MISS:     253529 MSHR_MERGE:     187437
cpu0->cpu0_L1D RFO          ACCESS:          0 HIT:          0 MISS:          0 MSHR_MERGE:          0
cpu0->cpu0_L1D PREFETCH     ACCESS:          0 HIT:          0 MISS:          0 MSHR_MERGE:          0
cpu0->cpu0_L1D WRITE        ACCESS:     351027 HIT:     350794 MISS:        233 MSHR_MERGE:        156
cpu0->cpu0_L1D TRANSLATION  ACCESS:       1390 HIT:        582 MISS:        808 MSHR_MERGE:          0
cpu0->cpu0_L1D PREFETCH REQUESTED:          0 ISSUED:          0 USEFUL:          0 USELESS:          0
cpu0->cpu0_L1D AVERAGE MISS LATENCY: 142.6 cycles
cpu0->cpu0_ITLB TOTAL        ACCESS:     713089 HIT:     713089 MISS:          0 MSHR_MERGE:          0
cpu0->cpu0_ITLB LOAD         ACCESS:     713089 HIT:     713089 MISS:          0 MSHR_MERGE:          0
cpu0->cpu0_ITLB RFO          ACCESS:          0 HIT:          0 MISS:          0 MSHR_MERGE:          0
cpu0->cpu0_ITLB PREFETCH     ACCESS:          0 HIT:          0 MISS:          0 MSHR_MERGE:          0
cpu0->cpu0_ITLB WRITE        ACCESS:          0 HIT:          0 MISS:          0 MSHR_MERGE:          0
cpu0->cpu0_ITLB TRANSLATION  ACCESS:          0 HIT:          0 MISS:          0 MSHR_MERGE:          0
cpu0->cpu0_ITLB PREFETCH REQUESTED:          0 ISSUED:          0 USEFUL:          0 USELESS:          0
cpu0->cpu0_ITLB AVERAGE MISS LATENCY: - cycles
cpu0->cpu0_DTLB TOTAL        ACCESS:    1415938 HIT:    1412013 MISS:       3925 MSHR_MERGE:       2774
cpu0->cpu0_DTLB LOAD         ACCESS:    1415938 HIT:    1412013 MISS:       3925 MSHR_MERGE:       2774
cpu0->cpu0_DTLB RFO          ACCESS:          0 HIT:          0 MISS:          0 MSHR_MERGE:          0
cpu0->cpu0_DTLB PREFETCH     ACCESS:          0 HIT:          0 MISS:          0 MSHR_MERGE:          0
cpu0->cpu0_DTLB WRITE        ACCESS:          0 HIT:          0 MISS:          0 MSHR_MERGE:          0
cpu0->cpu0_DTLB TRANSLATION  ACCESS:          0 HIT:          0 MISS:          0 MSHR_MERGE:          0
cpu0->cpu0_DTLB PREFETCH REQUESTED:          0 ISSUED:          0 USEFUL:          0 USELESS:          0
cpu0->cpu0_DTLB AVERAGE MISS LATENCY: 408 cycles
cpu0->LLC TOTAL        ACCESS:      91839 HIT:      46605 MISS:      45234 MSHR_MERGE:          0
cpu0->LLC LOAD         ACCESS:      47493 HIT:       3048 MISS:      44445 MSHR_MERGE:          0
cpu0->LLC RFO          ACCESS:          8 HIT:          8 MISS:          0 MSHR_MERGE:          0
cpu0->LLC PREFETCH     ACCESS:          0 HIT:          0 MISS:          0 MSHR_MERGE:          0
cpu0->LLC WRITE        ACCESS:      43548 HIT:      43548 MISS:          0 MSHR_MERGE:          0
cpu0->LLC TRANSLATION  ACCESS:        790 HIT:          1 MISS:        789 MSHR_MERGE:          0
cpu0->LLC PREFETCH REQUESTED:          0 ISSUED:          0 USEFUL:          0 USELESS:          0
cpu0->LLC AVERAGE MISS LATENCY: 181.3 cycles

DRAM Statistics

Channel 0 RQ ROW_BUFFER_HIT:       6822
  ROW_BUFFER_MISS:      38412
  AVG DBUS CONGESTED CYCLE: 12.94
Channel 0 WQ ROW_BUFFER_HIT:       8683
  ROW_BUFFER_MISS:      13069
  FULL:          0
Channel 0 REFRESHES ISSUED:        910
