[VMEM] WARNING: physical memory size is smaller than virtual memory size.

*** ChampSim Multicore Out-of-Order Simulator ***
Warmup Instructions: 1000000
Simulation Instructions: 5000000
Number of CPUs: 1
Page size: 4096

Off-chip DRAM Size: 16 GiB Channels: 1 Width: 64-bit Data Rate: 3205 MT/s
Warmup finished CPU 0 instructions: 1000002 cycles: 263789 cumulative IPC: 3.791 (Simulation time: 00 hr 00 min 02 sec)
Warmup complete CPU 0 instructions: 1000002 cycles: 263789 cumulative IPC: 3.791 (Simulation time: 00 hr 00 min 02 sec)
Simulation finished CPU 0 instructions: 5000001 cycles: 4866284 cumulative IPC: 1.027 (Simulation time: 00 hr 00 min 38 sec)
Simulation complete CPU 0 instructions: 5000001 cycles: 4866284 cumulative IPC: 1.027 (Simulation time: 00 hr 00 min 38 sec)

ChampSim completed all CPUs

=== Simulation ===
CPU 0 runs traces/654.roms_s-293B.champsimtrace.xz

Region of Interest Statistics

CPU 0 cumulative IPC: 1.027 instructions: 5000001 cycles: 4866284
CPU 0 Branch Prediction Accuracy: 99.77% MPKI: 0.0354 Average ROB Occupancy at Mispredict: 294.2
Branch type MPKI
BRANCH_DIRECT_JUMP: 0.0002
BRANCH_INDIRECT: 0
BRANCH_CONDITIONAL: 0.0352
BRANCH_DIRECT_CALL: 0
BRANCH_INDIRECT_CALL: 0
BRANCH_RETURN: 0

cpu0->cpu0_STLB TOTAL        ACCESS:       1269 HIT:        371 MISS:        898 MSHR_MERGE:          0
cpu0->cpu0_STLB LOAD         ACCESS:       1269 HIT:        371 MISS:        898 MSHR_MERGE:          0
cpu0->cpu0_STLB RFO          ACCESS:          0 HIT:          0 MISS:          0 MSHR_MERGE:          0
cpu0->cpu0_STLB PREFETCH     ACCESS:          0 HIT:          0 MISS:          0 MSHR_MERGE:          0
cpu0->cpu0_STLB WRITE        ACCESS:          0 HIT:          0 MISS:          0 MSHR_MERGE:          0
cpu0->cpu0_STLB TRANSLATION  ACCESS:          0 HIT:          0 MISS:          0 MSHR_MERGE:          0
cpu0->cpu0_STLB PREFETCH REQUESTED:          0 ISSUED:          0 USEFUL:          0 USELESS:          0
cpu0->cpu0_STLB AVERAGE MISS LATENCY: 921 cycles
cpu0->cpu0_L2C TOTAL        ACCESS:      96119 HIT:      38458 MISS:      57661 MSHR_MERGE:          0
cpu0->cpu0_L2C LOAD         ACCESS:      43874 HIT:      12903 MISS:      30971 MSHR_MERGE:          0
cpu0->cpu0_L2C RFO          ACCESS:      25181 HIT:        207 MISS:      24974 MSHR_MERGE:          0
cpu0->cpu0_L2C PREFETCH     ACCESS:          0 HIT:          0 MISS:          0 MSHR_MERGE:          0
cpu0->cpu0_L2C WRITE        ACCESS:      25266 HIT:      25218 MISS:         48 MSHR_MERGE:          0
cpu0->cpu0_L2C TRANSLATION  ACCESS:       1798 HIT:        130 MISS:       1668 MSHR_MERGE:          0
cpu0->cpu0_L2C PREFETCH REQUESTED:          0 ISSUED:          0 USEFUL:          0 USELESS:          0
cpu0->cpu0_L2C AVERAGE MISS LATENCY: 183.8 cycles
cpu0->cpu0_L1I TOTAL        ACCESS:    1003314 HIT:    1003251 MISS:         63 MSHR_MERGE:         21
cpu0->cpu0_L1I LOAD         ACCESS:    1003314 HIT:    1003251 MISS:         63 MSHR_MERGE:         21
cpu0->cpu0_L1I RFO          ACCESS:          0 HIT:          0 MISS:          0 MSHR_MERGE:          0
cpu0->cpu0_L1I PREFETCH     ACCESS:          0 HIT:          0 MISS:          0 MSHR_MERGE:          0
cpu0->cpu0_L1I WRITE        ACCESS:          0 HIT:          0 MISS:          0 MSHR_MERGE:          0
cpu0->cpu0_L1I TRANSLATION  ACCESS:          0 HIT:          0 MISS:          0 MSHR_MERGE:          0
cpu0->cpu0_L1I PREFETCH REQUESTED:          0 ISSUED:          0 USEFUL:          0 USELESS:          0
cpu0->cpu0_L1I AVERAGE MISS LATENCY: 308.9 cycles
cpu0->cpu0_L1D TOTAL        ACCESS:    1597863 HIT:    1422894 MISS:     174969 MSHR_MERGE:     104152
cpu0->cpu0_L1D LOAD         ACCESS:    1144234 HIT:    1069765 MISS:      74469 MSHR_MERGE:      30636
cpu0->cpu0_L1D RFO          ACCESS:          0 HIT:          0 MISS:          0 MSHR_MERGE:          0
cpu0->cpu0_L1D PREFETCH     ACCESS:          0 HIT:          0 MISS:          0 MSHR_MERGE:          0
cpu0->cpu0_L1D WRITE        ACCESS:     451516 HIT:     352823 MISS:      98693 MSHR_MERGE:      73507
cpu0->cpu0_L1D TRANSLATION  ACCESS:       2113 HIT:        306 MISS:       1807 MSHR_MERGE:          9
cpu0->cpu0_L1D PREFETCH REQUESTED:          0 ISSUED:          0 USEFUL:          0 USELESS:          0
cpu0->cpu0_L1D AVERAGE MISS LATENCY: 158.3 cycles
cpu0->cpu0_ITLB TOTAL        ACCESS:     759569 HIT:     759568 MISS:          1 MSHR_MERGE:          0
cpu0->cpu0_ITLB LOAD         ACCESS:     759569 HIT:     759568 MISS:          1 MSHR_MERGE:          0
cpu0->cpu0_ITLB RFO          ACCESS:          0 HIT:          0 MISS:          0 MSHR_MERGE:          0
cpu0->cpu0_ITLB PREFETCH     ACCESS:          0 HIT:          0 MISS:          0 MSHR_MERGE:          0
cpu0->cpu0_ITLB WRITE        ACCESS:          0 HIT:          0 MISS:          0 MSHR_MERGE:          0
cpu0->cpu0_ITLB TRANSLATION  ACCESS:          0 HIT:          0 MISS:          0 MSHR_MERGE:          0
cpu0->cpu0_ITLB PREFETCH REQUESTED:          0 ISSUED:          0 USEFUL:          0 USELESS:          0
cpu0->cpu0_ITLB AVERAGE MISS LATENCY: 695 cycles
cpu0->cpu0_DTLB TOTAL        ACCESS:    1516822 HIT:    1511054 MISS:       5768 MSHR_MERGE:       4500
cpu0->cpu0_DTLB LOAD         ACCESS:    1516822 HIT:    1511054 MISS:       5768 MSHR_MERGE:       4500
cpu0->cpu0_DTLB RFO          ACCESS:          0 HIT:          0 MISS:          0 MSHR_MERGE:          0
cpu0->cpu0_DTLB PREFETCH     ACCESS:          0 HIT:          0 MISS:          0 MSHR_MERGE:          0
cpu0->cpu0_DTLB WRITE        ACCESS:          0 HIT:          0 MISS:          0 MSHR_MERGE:          0
cpu0->cpu0_DTLB TRANSLATION  ACCESS:          0 HIT:          0 MISS:          0 MSHR_MERGE:          0
cpu0->cpu0_DTLB PREFETCH REQUESTED:          0 ISSUED:          0 USEFUL:          0 USELESS:          0
cpu0->cpu0_DTLB AVERAGE MISS LATENCY: 657.4 cycles
cpu0->LLC TOTAL        ACCESS:      81670 HIT:      37446 MISS:      44224 MSHR_MERGE:          0
cpu0->LLC LOAD         ACCESS:      30971 HIT:      11758 MISS:      19213 MSHR_MERGE:          0
cpu0->LLC RFO          ACCESS:      24974 HIT:       1617 MISS:      23357 MSHR_MERGE:          0
cpu0->LLC PREFETCH     ACCESS:          0 HIT:          0 MISS:          0 MSHR_MERGE:          0
cpu0->LLC WRITE        ACCESS:      24057 HIT:      24057 MISS:          0 MSHR_MERGE:          0
cpu0->LLC TRANSLATION  ACCESS:       1668 HIT:         14 MISS:       1654 MSHR_MERGE:          0
cpu0->LLC PREFETCH REQUESTED:          0 ISSUED:          0 USEFUL:          0 USELESS:          0
cpu0->LLC AVERAGE MISS LATENCY: 219.1 cycles

DRAM Statistics

Channel 0 RQ ROW_BUFFER_HIT:        250
  ROW_BUFFER_MISS:      43886
  AVG DBUS CONGESTED CYCLE: 8.611
Channel 0 WQ ROW_BUFFER_HIT:       3161
  ROW_BUFFER_MISS:       6712
  FULL:          0
Channel 0 REFRESHES ISSUED:        406
