[VMEM] WARNING: physical memory size is smaller than virtual memory size.

*** ChampSim Multicore Out-of-Order Simulator ***
Warmup Instructions: 1000000
Simulation Instructions: 5000000
Number of CPUs: 1
Page size: 4096

Off-chip DRAM Size: 16 GiB Channels: 1 Width: 64-bit Data Rate: 3205 MT/s
Warmup finished CPU 0 instructions: 1000000 cycles: 270037 cumulative IPC: 3.703 (Simulation time: 00 hr 00 min 02 sec)
Warmup complete CPU 0 instructions: 1000000 cycles: 270037 cumulative IPC: 3.703 (Simulation time: 00 hr 00 min 02 sec)
Simulation finished CPU 0 instructions: 5000000 cycles: 3519789 cumulative IPC: 1.421 (Simulation time: 00 hr 00 min 21 sec)
Simulation complete CPU 0 instructions: 5000000 cycles: 3519789 cumulative IPC: 1.421 (Simulation time: 00 hr 00 min 21 sec)

ChampSim completed all CPUs

=== Simulation ===
CPU 0 runs traces/657.xz_s-4994B.champsimtrace.xz

Region of Interest Statistics

CPU 0 cumulative IPC: 1.421 instructions: 5000000 cycles: 3519789
CPU 0 Branch Prediction Accuracy: 85.67% MPKI: 15.16 Average ROB Occupancy at Mispredict: 29.28
Branch type MPKI
BRANCH_DIRECT_JUMP: 0.0002
BRANCH_INDIRECT: 0.001
BRANCH_CONDITIONAL: 15.16
BRANCH_DIRECT_CALL: 0.0004
BRANCH_INDIRECT_CALL: 0
BRANCH_RETURN: 0.001

cpu0->cpu0_STLB TOTAL        ACCESS:         10 HIT:          1 MISS:          9 MSHR_MERGE:          0
cpu0->cpu0_STLB LOAD         ACCESS:         10 HIT:          1 MISS:          9 MSHR_MERGE:          0
cpu0->cpu0_STLB RFO          ACCESS:          0 HIT:          0 MISS:          0 MSHR_MERGE:          0
cpu0->cpu0_STLB PREFETCH     ACCESS:          0 HIT:          0 MISS:          0 MSHR_MERGE:          0
cpu0->cpu0_STLB WRITE        ACCESS:          0 HIT:          0 MISS:          0 MSHR_MERGE:          0
cpu0->cpu0_STLB TRANSLATION  ACCESS:          0 HIT:          0 MISS:          0 MSHR_MERGE:          0
cpu0->cpu0_STLB PREFETCH REQUESTED:          0 ISSUED:          0 USEFUL:          0 USELESS:          0
cpu0->cpu0_STLB AVERAGE MISS LATENCY: 749.9 cycles
cpu0->cpu0_L2C TOTAL        ACCESS:       1682 HIT:       1020 MISS:        662 MSHR_MERGE:          0
cpu0->cpu0_L2C LOAD         ACCESS:        490 HIT:        346 MISS:        144 MSHR_MERGE:          0
cpu0->cpu0_L2C RFO          ACCESS:        535 HIT:         31 MISS:        504 MSHR_MERGE:          0
cpu0->cpu0_L2C PREFETCH     ACCESS:          0 HIT:          0 MISS:          0 MSHR_MERGE:          0
cpu0->cpu0_L2C WRITE        ACCESS:        641 HIT:        641 MISS:          0 MSHR_MERGE:          0
cpu0->cpu0_L2C TRANSLATION  ACCESS:         16 HIT:          2 MISS:         14 MSHR_MERGE:          0
cpu0->cpu0_L2C PREFETCH REQUESTED:          0 ISSUED:          0 USEFUL:          0 USELESS:          0
cpu0->cpu0_L2C AVERAGE MISS LATENCY: 165 cycles
cpu0->cpu0_L1I TOTAL        ACCESS:      29834 HIT:      29828 MISS:          6 MSHR_MERGE:          1
cpu0->cpu0_L1I LOAD         ACCESS:      29834 HIT:      29828 MISS:          6 MSHR_MERGE:          1
cpu0->cpu0_L1I RFO          ACCESS:          0 HIT:          0 MISS:          0 MSHR_MERGE:          0
cpu0->cpu0_L1I PREFETCH     ACCESS:          0 HIT:          0 MISS:          0 MSHR_MERGE:          0
cpu0->cpu0_L1I WRITE        ACCESS:          0 HIT:          0 MISS:          0 MSHR_MERGE:          0
cpu0->cpu0_L1I TRANSLATION  ACCESS:          0 HIT:          0 MISS:          0 MSHR_MERGE:          0
cpu0->cpu0_L1I PREFETCH REQUESTED:          0 ISSUED:          0 USEFUL:          0 USELESS:          0
cpu0->cpu0_L1I AVERAGE MISS LATENCY: 250 cycles
cpu0->cpu0_L1D TOTAL        ACCESS:     766025 HIT:     762882 MISS:       3143 MSHR_MERGE:       2107
cpu0->cpu0_L1D LOAD         ACCESS:     462286 HIT:     461649 MISS:        637 MSHR_MERGE:        152
cpu0->cpu0_L1D RFO          ACCESS:          0 HIT:          0 MISS:          0 MSHR_MERGE:          0
cpu0->cpu0_L1D PREFETCH     ACCESS:          0 HIT:          0 MISS:          0 MSHR_MERGE:          0
cpu0->cpu0_L1D WRITE        ACCESS:     303719 HIT:     301229 MISS:       2490 MSHR_MERGE:       1955
cpu0->cpu0_L1D TRANSLATION  ACCESS:         20 HIT:          4 MISS:         16 MSHR_MERGE:          0
cpu0->cpu0_L1D PREFETCH REQUESTED:          0 ISSUED:          0 USEFUL:          0 USELESS:          0
cpu0->cpu0_L1D AVERAGE MISS LATENCY: 112.9 cycles
cpu0->cpu0_ITLB TOTAL        ACCESS:      27847 HIT:      27847 MISS:          0 MSHR_MERGE:          0
cpu0->cpu0_ITLB LOAD         ACCESS:      27847 HIT:      27847 MISS:          0 MSHR_MERGE:          0
cpu0->cpu0_ITLB RFO          ACCESS:          0 HIT:          0 MISS:          0 MSHR_MERGE:          0
cpu0->cpu0_ITLB PREFETCH     ACCESS:          0 HIT:          0 MISS:          0 MSHR_MERGE:          0
cpu0->cpu0_ITLB WRITE        ACCESS:          0 HIT:          0 MISS:          0 MSHR_MERGE:          0
cpu0->cpu0_ITLB TRANSLATION  ACCESS:          0 HIT:          0 MISS:          0 MSHR_MERGE:          0
cpu0->cpu0_ITLB PREFETCH REQUESTED:          0 ISSUED:          0 USEFUL:          0 USELESS:          0
cpu0->cpu0_ITLB AVERAGE MISS LATENCY: - cycles
cpu0->cpu0_DTLB TOTAL        ACCESS:     720607 HIT:     720548 MISS:         59 MSHR_MERGE:         49
cpu0->cpu0_DTLB LOAD         ACCESS:     720607 HIT:     720548 MISS:         59 MSHR_MERGE:         49
cpu0->cpu0_DTLB RFO          ACCESS:          0 HIT:          0 MISS:          0 MSHR_MERGE:          0
cpu0->cpu0_DTLB PREFETCH     ACCESS:          0 HIT:          0 MISS:          0 MSHR_MERGE:          0
cpu0->cpu0_DTLB WRITE        ACCESS:          0 HIT:          0 MISS:          0 MSHR_MERGE:          0
cpu0->cpu0_DTLB TRANSLATION  ACCESS:          0 HIT:          0 MISS:          0 MSHR_MERGE:          0
cpu0->cpu0_DTLB PREFETCH REQUESTED:          0 ISSUED:          0 USEFUL:          0 USELESS:          0
cpu0->cpu0_DTLB AVERAGE MISS LATENCY: 680.8 cycles
cpu0->LLC TOTAL        ACCESS:        662 HIT:          0 MISS:        662 MSHR_MERGE:          0
cpu0->LLC LOAD         ACCESS:        144 HIT:          0 MISS:        144 MSHR_MERGE:          0
cpu0->LLC RFO          ACCESS:        504 HIT:          0 MISS:        504 MSHR_MERGE:          0
cpu0->LLC PREFETCH     ACCESS:          0 HIT:          0 MISS:          0 MSHR_MERGE:          0
cpu0->LLC WRITE        ACCESS:          0 HIT:          0 MISS:          0 MSHR_MERGE:          0
cpu0->LLC TRANSLATION  ACCESS:         14 HIT:          0 MISS:         14 MSHR_MERGE:          0
cpu0->LLC PREFETCH REQUESTED:          0 ISSUED:          0 USEFUL:          0 USELESS:          0
cpu0->LLC AVERAGE MISS LATENCY: 149 cycles

DRAM Statistics

Channel 0 RQ ROW_BUFFER_HIT:        123
  ROW_BUFFER_MISS:        539
  AVG DBUS CONGESTED CYCLE: 2.841
Channel 0 WQ ROW_BUFFER_HIT:          0
  ROW_BUFFER_MISS:          0
  FULL:          0
Channel 0 REFRESHES ISSUED:        293
