[VMEM] WARNING: physical memory size is smaller than virtual memory size.

*** ChampSim Multicore Out-of-Order Simulator ***
Warmup Instructions: 1000000
Simulation Instructions: 5000000
Number of CPUs: 1
Page size: 4096

Off-chip DRAM Size: 16 GiB Channels: 1 Width: 64-bit Data Rate: 3205 MT/s
Warmup finished CPU 0 instructions: 1000002 cycles: 359888 cumulative IPC: 2.779 (Simulation time: 00 hr 00 min 03 sec)
Warmup complete CPU 0 instructions: 1000002 cycles: 359888 cumulative IPC: 2.779 (Simulation time: 00 hr 00 min 03 sec)
Simulation finished CPU 0 instructions: 5000001 cycles: 20847606 cumulative IPC: 0.2398 (Simulation time: 00 hr 01 min 31 sec)
Simulation complete CPU 0 instructions: 5000001 cycles: 20847606 cumulative IPC: 0.2398 (Simulation time: 00 hr 01 min 31 sec)

ChampSim completed all CPUs

=== Simulation ===
CPU 0 runs traces/602.gcc_s-1850B.champsimtrace.xz

Region of Interest Statistics

CPU 0 cumulative IPC: 0.2398 instructions: 5000001 cycles: 20847606
CPU 0 Branch Prediction Accuracy: 92.25% MPKI: 19.87 Average ROB Occupancy at Mispredict: 28.63
Branch type MPKI
BRANCH_DIRECT_JUMP: 0.0202
BRANCH_INDIRECT: 0
BRANCH_CONDITIONAL: 19.85
BRANCH_DIRECT_CALL: 0.0002
BRANCH_INDIRECT_CALL: 0
BRANCH_RETURN: 0.0002

cpu0->cpu0_STLB TOTAL        ACCESS:       1707 HIT:        145 MISS:       1562 MSHR_MERGE:          0
cpu0->cpu0_STLB LOAD         ACCESS:       1707 HIT:        145 MISS:       1562 MSHR_MERGE:          0
cpu0->cpu0_STLB RFO          ACCESS:          0 HIT:          0 MISS:          0 MSHR_MERGE:          0
cpu0->cpu0_STLB PREFETCH     ACCESS:          0 HIT:          0 MISS:          0 MSHR_MERGE:          0
cpu0->cpu0_STLB WRITE        ACCESS:          0 HIT:          0 MISS:          0 MSHR_MERGE:          0
cpu0->cpu0_STLB TRANSLATION  ACCESS:          0 HIT:          0 MISS:          0 MSHR_MERGE:          0
cpu0->cpu0_STLB PREFETCH REQUESTED:          0 ISSUED:          0 USEFUL:          0 USELESS:          0
cpu0->cpu0_STLB AVERAGE MISS LATENCY: 688.1 cycles
cpu0->cpu0_L2C TOTAL        ACCESS:     123475 HIT:      32224 MISS:      91251 MSHR_MERGE:          0
cpu0->cpu0_L2C LOAD         ACCESS:     121153 HIT:      31925 MISS:      89228 MSHR_MERGE:          0
cpu0->cpu0_L2C RFO          ACCESS:          6 HIT:          0 MISS:          6 MSHR_MERGE:          0
cpu0->cpu0_L2C PREFETCH     ACCESS:          0 HIT:          0 MISS:          0 MSHR_MERGE:          0
cpu0->cpu0_L2C WRITE        ACCESS:        320 HIT:        291 MISS:         29 MSHR_MERGE:          0
cpu0->cpu0_L2C TRANSLATION  ACCESS:       1996 HIT:          8 MISS:       1988 MSHR_MERGE:          0
cpu0->cpu0_L2C PREFETCH REQUESTED:          0 ISSUED:          0 USEFUL:          0 USELESS:          0
cpu0->cpu0_L2C AVERAGE MISS LATENCY: 158 cycles
cpu0->cpu0_L1I TOTAL        ACCESS:         80 HIT:         80 MISS:          0 MSHR_MERGE:          0
cpu0->cpu0_L1I LOAD         ACCESS:         80 HIT:         80 MISS:          0 MSHR_MERGE:          0
cpu0->cpu0_L1I RFO          ACCESS:          0 HIT:          0 MISS:          0 MSHR_MERGE:          0
cpu0->cpu0_L1I PREFETCH     ACCESS:          0 HIT:          0 MISS:          0 MSHR_MERGE:          0
cpu0->cpu0_L1I WRITE        ACCESS:          0 HIT:          0 MISS:          0 MSHR_MERGE:          0
cpu0->cpu0_L1I TRANSLATION  ACCESS:          0 HIT:          0 MISS:          0 MSHR_MERGE:          0
cpu0->cpu0_L1I PREFETCH REQUESTED:          0 ISSUED:          0 USEFUL:          0 USELESS:          0
cpu0->cpu0_L1I AVERAGE MISS LATENCY: - cycles
cpu0->cpu0_L1D TOTAL        ACCESS:    1494626 HIT:    1282381 MISS:     212245 MSHR_MERGE:      89090
cpu0->cpu0_L1D LOAD         ACCESS:    1060071 HIT:     849829 MISS:     210242 MSHR_MERGE:      89089
cpu0->cpu0_L1D RFO          ACCESS:          0 HIT:          0 MISS:          0 MSHR_MERGE:          0
cpu0->cpu0_L1D PREFETCH     ACCESS:          0 HIT:          0 MISS:          0 MSHR_MERGE:          0
cpu0->cpu0_L1D WRITE        ACCESS:     431403 HIT:     431397 MISS:          6 MSHR_MERGE:          0
cpu0->cpu0_L1D TRANSLATION  ACCESS:       3152 HIT:       1155 MISS:       1997 MSHR_MERGE:          1
cpu0->cpu0_L1D PREFETCH REQUESTED:          0 ISSUED:          0 USEFUL:          0 USELESS:          0
cpu0->cpu0_L1D AVERAGE MISS LATENCY: 125.8 cycles
cpu0->cpu0_ITLB TOTAL        ACCESS:         61 HIT:         61 MISS:          0 MSHR_MERGE:          0
cpu0->cpu0_ITLB LOAD         ACCESS:         61 HIT:         61 MISS:          0 MSHR_MERGE:          0
cpu0->cpu0_ITLB RFO          ACCESS:          0 HIT:          0 MISS:          0 MSHR_MERGE:          0
cpu0->cpu0_ITLB PREFETCH     ACCESS:          0 HIT:          0 MISS:          0 MSHR_MERGE:          0
cpu0->cpu0_ITLB WRITE        ACCESS:          0 HIT:          0 MISS:          0 MSHR_MERGE:          0
cpu0->cpu0_ITLB TRANSLATION  ACCESS:          0 HIT:          0 MISS:          0 MSHR_MERGE:          0
cpu0->cpu0_ITLB PREFETCH REQUESTED:          0 ISSUED:          0 USEFUL:          0 USELESS:          0
cpu0->cpu0_ITLB AVERAGE MISS LATENCY: - cycles
cpu0->cpu0_DTLB TOTAL        ACCESS:    1452843 HIT:    1449467 MISS:       3376 MSHR_MERGE:       1669
cpu0->cpu0_DTLB LOAD         ACCESS:    1452843 HIT:    1449467 MISS:       3376 MSHR_MERGE:       1669
cpu0->cpu0_DTLB RFO          ACCESS:          0 HIT:          0 MISS:          0 MSHR_MERGE:          0
cpu0->cpu0_DTLB PREFETCH     ACCESS:          0 HIT:          0 MISS:          0 MSHR_MERGE:          0
cpu0->cpu0_DTLB WRITE        ACCESS:          0 HIT:          0 MISS:          0 MSHR_MERGE:          0
cpu0->cpu0_DTLB TRANSLATION  ACCESS:          0 HIT:          0 MISS:          0 MSHR_MERGE:          0
cpu0->cpu0_DTLB PREFETCH REQUESTED:          0 ISSUED:          0 USEFUL:          0 USELESS:          0
cpu0->cpu0_DTLB AVERAGE MISS LATENCY: 635.6 cycles
cpu0->LLC TOTAL        ACCESS:      91290 HIT:        376 MISS:      90914 MSHR_MERGE:          0
cpu0->LLC LOAD         ACCESS:      89228 HIT:        266 MISS:      88962 MSHR_MERGE:          0
cpu0->LLC RFO          ACCESS:          6 HIT:          0 MISS:          6 MSHR_MERGE:          0
cpu0->LLC PREFETCH     ACCESS:          0 HIT:          0 MISS:          0 MSHR_MERGE:          0
cpu0->LLC WRITE        ACCESS:         68 HIT:         65 MISS:          3 MSHR_MERGE:          0
cpu0->LLC TRANSLATION  ACCESS:       1988 HIT:         45 MISS:       1943 MSHR_MERGE:          0
cpu0->LLC PREFETCH REQUESTED:          0 ISSUED:          0 USEFUL:          0 USELESS:          0
cpu0->LLC AVERAGE MISS LATENCY: 142.5 cycles

DRAM Statistics

Channel 0 RQ ROW_BUFFER_HIT:      22994
  ROW_BUFFER_MISS:      67917
  AVG DBUS CONGESTED CYCLE: 15.41
Channel 0 WQ ROW_BUFFER_HIT:         17
  ROW_BUFFER_MISS:         32
  FULL:          0
Channel 0 REFRESHES ISSUED:       1738
