[VMEM] WARNING: physical memory size is smaller than virtual memory size.

*** ChampSim Multicore Out-of-Order Simulator ***
Warmup Instructions: 1000000
Simulation Instructions: 5000000
Number of CPUs: 1
Page size: 4096

Off-chip DRAM Size: 16 GiB Channels: 1 Width: 64-bit Data Rate: 3205 MT/s
Warmup finished CPU 0 instructions: 1000003 cycles: 559925 cumulative IPC: 1.786 (Simulation time: 00 hr 00 min 05 sec)
Warmup complete CPU 0 instructions: 1000003 cycles: 559925 cumulative IPC: 1.786 (Simulation time: 00 hr 00 min 05 sec)
Simulation finished CPU 0 instructions: 5000002 cycles: 20436078 cumulative IPC: 0.2447 (Simulation time: 00 hr 02 min 18 sec)
Simulation complete CPU 0 instructions: 5000002 cycles: 20436078 cumulative IPC: 0.2447 (Simulation time: 00 hr 02 min 18 sec)

ChampSim completed all CPUs

=== Simulation ===
CPU 0 runs traces/605.mcf_s-1536B.champsimtrace.xz

Region of Interest Statistics

CPU 0 cumulative IPC: 0.2447 instructions: 5000002 cycles: 20436078
CPU 0 Branch Prediction Accuracy: 99.97% MPKI: 0.049 Average ROB Occupancy at Mispredict: 177.7
Branch type MPKI
BRANCH_DIRECT_JUMP: 0
BRANCH_INDIRECT: 0
BRANCH_CONDITIONAL: 0.049
BRANCH_DIRECT_CALL: 0
BRANCH_INDIRECT_CALL: 0
BRANCH_RETURN: 0

cpu0->cpu0_STLB TOTAL        ACCESS:     152429 HIT:      40388 MISS:     112041 MSHR_MERGE:          0
cpu0->cpu0_STLB LOAD         ACCESS:     152429 HIT:      40388 MISS:     112041 MSHR_MERGE:          0
cpu0->cpu0_STLB RFO          ACCESS:          0 HIT:          0 MISS:          0 MSHR_MERGE:          0
cpu0->cpu0_STLB PREFETCH     ACCESS:          0 HIT:          0 MISS:          0 MSHR_MERGE:          0
cpu0->cpu0_STLB WRITE        ACCESS:          0 HIT:          0 MISS:          0 MSHR_MERGE:          0
cpu0->cpu0_STLB TRANSLATION  ACCESS:          0 HIT:          0 MISS:          0 MSHR_MERGE:          0
cpu0->cpu0_STLB PREFETCH REQUESTED:          0 ISSUED:          0 USEFUL:          0 USELESS:          0
cpu0->cpu0_STLB AVERAGE MISS LATENCY: 71.61 cycles
cpu0->cpu0_L2C TOTAL        ACCESS:     574007 HIT:     257406 MISS:     316601 MSHR_MERGE:          0
cpu0->cpu0_L2C LOAD         ACCESS:     223433 HIT:      68429 MISS:     155004 MSHR_MERGE:          0
cpu0->cpu0_L2C RFO          ACCESS:      14423 HIT:        999 MISS:      13424 MSHR_MERGE:          0
cpu0->cpu0_L2C PREFETCH     ACCESS:          0 HIT:          0 MISS:          0 MSHR_MERGE:          0
cpu0->cpu0_L2C WRITE        ACCESS:     111422 HIT:      65688 MISS:      45734 MSHR_MERGE:          0
cpu0->cpu0_L2C TRANSLATION  ACCESS:     224729 HIT:     122290 MISS:     102439 MSHR_MERGE:          0
cpu0->cpu0_L2C PREFETCH REQUESTED:          0 ISSUED:          0 USEFUL:          0 USELESS:          0
cpu0->cpu0_L2C AVERAGE MISS LATENCY: 114.1 cycles
cpu0->cpu0_L1I TOTAL        ACCESS:    1110501 HIT:    1110501 MISS:          0 MSHR_MERGE:          0
cpu0->cpu0_L1I LOAD         ACCESS:    1110501 HIT:    1110501 MISS:          0 MSHR_MERGE:          0
cpu0->cpu0_L1I RFO          ACCESS:          0 HIT:          0 MISS:          0 MSHR_MERGE:          0
cpu0->cpu0_L1I PREFETCH     ACCESS:          0 HIT:          0 MISS:          0 MSHR_MERGE:          0
cpu0->cpu0_L1I WRITE        ACCESS:          0 HIT:          0 MISS:          0 MSHR_MERGE:          0
cpu0->cpu0_L1I TRANSLATION  ACCESS:          0 HIT:          0 MISS:          0 MSHR_MERGE:          0
cpu0->cpu0_L1I PREFETCH REQUESTED:          0 ISSUED:          0 USEFUL:          0 USELESS:          0
cpu0->cpu0_L1I AVERAGE MISS LATENCY: - cycles
cpu0->cpu0_L1D TOTAL        ACCESS:    1458107 HIT:     829075 MISS:     629032 MSHR_MERGE:     166444
cpu0->cpu0_L1D LOAD         ACCESS:     996341 HIT:     607316 MISS:     389025 MSHR_MERGE:     165592
cpu0->cpu0_L1D RFO          ACCESS:          0 HIT:          0 MISS:          0 MSHR_MERGE:          0
cpu0->cpu0_L1D PREFETCH     ACCESS:          0 HIT:          0 MISS:          0 MSHR_MERGE:          0
cpu0->cpu0_L1D WRITE        ACCESS:     221714 HIT:     207279 MISS:      14435 MSHR_MERGE:          9
cpu0->cpu0_L1D TRANSLATION  ACCESS:     240052 HIT:      14480 MISS:     225572 MSHR_MERGE:        843
cpu0->cpu0_L1D PREFETCH REQUESTED:          0 ISSUED:          0 USEFUL:          0 USELESS:          0
cpu0->cpu0_L1D AVERAGE MISS LATENCY: 86.38 cycles
cpu0->cpu0_ITLB TOTAL        ACCESS:     995478 HIT:     995478 MISS:          0 MSHR_MERGE:          0
cpu0->cpu0_ITLB LOAD         ACCESS:     995478 HIT:     995478 MISS:          0 MSHR_MERGE:          0
cpu0->cpu0_ITLB RFO          ACCESS:          0 HIT:          0 MISS:          0 MSHR_MERGE:          0
cpu0->cpu0_ITLB PREFETCH     ACCESS:          0 HIT:          0 MISS:          0 MSHR_MERGE:          0
cpu0->cpu0_ITLB WRITE        ACCESS:          0 HIT:          0 MISS:          0 MSHR_MERGE:          0
cpu0->cpu0_ITLB TRANSLATION  ACCESS:          0 HIT:          0 MISS:          0 MSHR_MERGE:          0
cpu0->cpu0_ITLB PREFETCH REQUESTED:          0 ISSUED:          0 USEFUL:          0 USELESS:          0
cpu0->cpu0_ITLB AVERAGE MISS LATENCY: - cycles
cpu0->cpu0_DTLB TOTAL        ACCESS:    1210474 HIT:     860173 MISS:     350301 MSHR_MERGE:     197873
cpu0->cpu0_DTLB LOAD         ACCESS:    1210474 HIT:     860173 MISS:     350301 MSHR_MERGE:     197873
cpu0->cpu0_DTLB RFO          ACCESS:          0 HIT:          0 MISS:          0 MSHR_MERGE:          0
cpu0->cpu0_DTLB PREFETCH     ACCESS:          0 HIT:          0 MISS:          0 MSHR_MERGE:          0
cpu0->cpu0_DTLB WRITE        ACCESS:          0 HIT:          0 MISS:          0 MSHR_MERGE:          0
cpu0->cpu0_DTLB TRANSLATION  ACCESS:          0 HIT:          0 MISS:          0 MSHR_MERGE:          0
cpu0->cpu0_DTLB PREFETCH REQUESTED:          0 ISSUED:          0 USEFUL:          0 USELESS:          0
cpu0->cpu0_DTLB AVERAGE MISS LATENCY: 58.37 cycles
cpu0->LLC TOTAL        ACCESS:     382497 HIT:     241603 MISS:     140894 MSHR_MERGE:          0
cpu0->LLC LOAD         ACCESS:     155004 HIT:      28082 MISS:     126922 MSHR_MERGE:          0
cpu0->LLC RFO          ACCESS:      13424 HIT:      13424 MISS:          0 MSHR_MERGE:          0
cpu0->LLC PREFETCH     ACCESS:          0 HIT:          0 MISS:          0 MSHR_MERGE:          0
cpu0->LLC WRITE        ACCESS:     111630 HIT:     106419 MISS:       5211 MSHR_MERGE:          0
cpu0->LLC TRANSLATION  ACCESS:     102439 HIT:      93678 MISS:       8761 MSHR_MERGE:          0
cpu0->LLC PREFETCH REQUESTED:          0 ISSUED:          0 USEFUL:          0 USELESS:          0
cpu0->LLC AVERAGE MISS LATENCY: 225.6 cycles

DRAM Statistics

Channel 0 RQ ROW_BUFFER_HIT:         35
  ROW_BUFFER_MISS:     135648
  AVG DBUS CONGESTED CYCLE: 5.848
Channel 0 WQ ROW_BUFFER_HIT:      35170
  ROW_BUFFER_MISS:      71760
  FULL:          0
Channel 0 REFRESHES ISSUED:       1703
