[VMEM] WARNING: physical memory size is smaller than virtual memory size.

*** ChampSim Multicore Out-of-Order Simulator ***
Warmup Instructions: 1000000
Simulation Instructions: 5000000
Number of CPUs: 1
Page size: 4096

Off-chip DRAM Size: 16 GiB Channels: 1 Width: 64-bit Data Rate: 3205 MT/s
Warmup finished CPU 0 instructions: 1000004 cycles: 337153 cumulative IPC: 2.966 (Simulation time: 00 hr 00 min 03 sec)
Warmup complete CPU 0 instructions: 1000004 cycles: 337153 cumulative IPC: 2.966 (Simulation time: 00 hr 00 min 03 sec)
Simulation finished CPU 0 instructions: 5000002 cycles: 11307639 cumulative IPC: 0.4422 (Simulation time: 00 hr 01 min 29 sec)
Simulation complete CPU 0 instructions: 5000002 cycles: 11307639 cumulative IPC: 0.4422 (Simulation time: 00 hr 01 min 29 sec)

ChampSim completed all CPUs

=== Simulation ===
CPU 0 runs traces/619.lbm_s-2676B.champsimtrace.xz

Region of Interest Statistics

CPU 0 cumulative IPC: 0.4422 instructions: 5000002 cycles: 11307639
CPU 0 Branch Prediction Accuracy: 95.45% MPKI: 0.7996 Average ROB Occupancy at Mispredict: 211.3
Branch type MPKI
BRANCH_DIRECT_JUMP: 0
BRANCH_INDIRECT: 0
BRANCH_CONDITIONAL: 0.7996
BRANCH_DIRECT_CALL: 0
BRANCH_INDIRECT_CALL: 0
BRANCH_RETURN: 0

cpu0->cpu0_STLB TOTAL        ACCESS:       6665 HIT:       3049 MISS:       3616 MSHR_MERGE:          0
cpu0->cpu0_STLB LOAD         ACCESS:       6665 HIT:       3049 MISS:       3616 MSHR_MERGE:          0
cpu0->cpu0_STLB RFO          ACCESS:          0 HIT:          0 MISS:          0 MSHR_MERGE:          0
cpu0->cpu0_STLB PREFETCH     ACCESS:          0 HIT:          0 MISS:          0 MSHR_MERGE:          0
cpu0->cpu0_STLB WRITE        ACCESS:          0 HIT:          0 MISS:          0 MSHR_MERGE:          0
cpu0->cpu0_STLB TRANSLATION  ACCESS:          0 HIT:          0 MISS:          0 MSHR_MERGE:          0
cpu0->cpu0_STLB PREFETCH REQUESTED:          0 ISSUED:          0 USEFUL:          0 USELESS:          0
cpu0->cpu0_STLB AVERAGE MISS LATENCY: 1102 cycles
cpu0->cpu0_L2C TOTAL        ACCESS:     714413 HIT:     128195 MISS:     586218 MSHR_MERGE:          0
cpu0->cpu0_L2C LOAD         ACCESS:      57859 HIT:          0 MISS:      57859 MSHR_MERGE:          0
cpu0->cpu0_L2C RFO          ACCESS:     326237 HIT:      20830 MISS:     305407 MSHR_MERGE:          0
cpu0->cpu0_L2C PREFETCH     ACCESS:          0 HIT:          0 MISS:          0 MSHR_MERGE:          0
cpu0->cpu0_L2C WRITE        ACCESS:     326241 HIT:     107365 MISS:     218876 MSHR_MERGE:          0
cpu0->cpu0_L2C TRANSLATION  ACCESS:       4076 HIT:          0 MISS:       4076 MSHR_MERGE:          0
cpu0->cpu0_L2C PREFETCH REQUESTED:          0 ISSUED:          0 USEFUL:          0 USELESS:          0
cpu0->cpu0_L2C AVERAGE MISS LATENCY: 203.6 cycles
cpu0->cpu0_L1I TOTAL        ACCESS:     784126 HIT:     784126 MISS:          0 MSHR_MERGE:          0
cpu0->cpu0_L1I LOAD         ACCESS:     784126 HIT:     784126 MISS:          0 MSHR_MERGE:          0
cpu0->cpu0_L1I RFO          ACCESS:          0 HIT:          0 MISS:          0 MSHR_MERGE:          0
cpu0->cpu0_L1I PREFETCH     ACCESS:          0 HIT:          0 MISS:          0 MSHR_MERGE:          0
cpu0->cpu0_L1I WRITE        ACCESS:          0 HIT:          0 MISS:          0 MSHR_MERGE:          0
cpu0->cpu0_L1I TRANSLATION  ACCESS:          0 HIT:          0 MISS:          0 MSHR_MERGE:          0
cpu0->cpu0_L1I PREFETCH REQUESTED:          0 ISSUED:          0 USEFUL:          0 USELESS:          0
cpu0->cpu0_L1I AVERAGE MISS LATENCY: - cycles
cpu0->cpu0_L1D TOTAL        ACCESS:    1238240 HIT:     757850 MISS:     480390 MSHR_MERGE:      92205
cpu0->cpu0_L1D LOAD         ACCESS:     321083 HIT:     188248 MISS:     132835 MSHR_MERGE:      74976
cpu0->cpu0_L1D RFO          ACCESS:          0 HIT:          0 MISS:          0 MSHR_MERGE:          0
cpu0->cpu0_L1D PREFETCH     ACCESS:          0 HIT:          0 MISS:          0 MSHR_MERGE:          0
cpu0->cpu0_L1D WRITE        ACCESS:     909917 HIT:     566438 MISS:     343479 MSHR_MERGE:      17229
cpu0->cpu0_L1D TRANSLATION  ACCESS:       7240 HIT:       3164 MISS:       4076 MSHR_MERGE:          0
cpu0->cpu0_L1D PREFETCH REQUESTED:          0 ISSUED:          0 USEFUL:          0 USELESS:          0
cpu0->cpu0_L1D AVERAGE MISS LATENCY: 314.7 cycles
cpu0->cpu0_ITLB TOTAL        ACCESS:     581305 HIT:     581305 MISS:          0 MSHR_MERGE:          0
cpu0->cpu0_ITLB LOAD         ACCESS:     581305 HIT:     581305 MISS:          0 MSHR_MERGE:          0
cpu0->cpu0_ITLB RFO          ACCESS:          0 HIT:          0 MISS:          0 MSHR_MERGE:          0
cpu0->cpu0_ITLB PREFETCH     ACCESS:          0 HIT:          0 MISS:          0 MSHR_MERGE:          0
cpu0->cpu0_ITLB WRITE        ACCESS:          0 HIT:          0 MISS:          0 MSHR_MERGE:          0
cpu0->cpu0_ITLB TRANSLATION  ACCESS:          0 HIT:          0 MISS:          0 MSHR_MERGE:          0
cpu0->cpu0_ITLB PREFETCH REQUESTED:          0 ISSUED:          0 USEFUL:          0 USELESS:          0
cpu0->cpu0_ITLB AVERAGE MISS LATENCY: - cycles
cpu0->cpu0_DTLB TOTAL        ACCESS:    1161921 HIT:    1137889 MISS:      24032 MSHR_MERGE:      17367
cpu0->cpu0_DTLB LOAD         ACCESS:    1161921 HIT:    1137889 MISS:      24032 MSHR_MERGE:      17367
cpu0->cpu0_DTLB RFO          ACCESS:          0 HIT:          0 MISS:          0 MSHR_MERGE:          0
cpu0->cpu0_DTLB PREFETCH     ACCESS:          0 HIT:          0 MISS:          0 MSHR_MERGE:          0
cpu0->cpu0_DTLB WRITE        ACCESS:          0 HIT:          0 MISS:          0 MSHR_MERGE:          0
cpu0->cpu0_DTLB TRANSLATION  ACCESS:          0 HIT:          0 MISS:          0 MSHR_MERGE:          0
cpu0->cpu0_DTLB PREFETCH REQUESTED:          0 ISSUED:          0 USEFUL:          0 USELESS:          0
cpu0->cpu0_DTLB AVERAGE MISS LATENCY: 603.7 cycles
cpu0->LLC TOTAL        ACCESS:     672428 HIT:     415531 MISS:     256897 MSHR_MERGE:          0
cpu0->LLC LOAD         ACCESS:      57859 HIT:          1 MISS:      57858 MSHR_MERGE:          0
cpu0->LLC RFO          ACCESS:     305407 HIT:     131849 MISS:     173558 MSHR_MERGE:          0
cpu0->LLC PREFETCH     ACCESS:          0 HIT:          0 MISS:          0 MSHR_MERGE:          0
cpu0->LLC WRITE        ACCESS:     305086 HIT:     283679 MISS:      21407 MSHR_MERGE:          0
cpu0->LLC TRANSLATION  ACCESS:       4076 HIT:          2 MISS:       4074 MSHR_MERGE:          0
cpu0->LLC PREFETCH REQUESTED:          0 ISSUED:          0 USEFUL:          0 USELESS:          0
cpu0->LLC AVERAGE MISS LATENCY: 439.2 cycles

DRAM Statistics

Channel 0 RQ ROW_BUFFER_HIT:      13088
  ROW_BUFFER_MISS:     222393
  AVG DBUS CONGESTED CYCLE: 7.345
Channel 0 WQ ROW_BUFFER_HIT:      27402
  ROW_BUFFER_MISS:     151668
  FULL:          0
Channel 0 REFRESHES ISSUED:        942
