[VMEM] WARNING: physical memory size is smaller than virtual memory size.

*** ChampSim Multicore Out-of-Order Simulator ***
Warmup Instructions: 1000000
Simulation Instructions: 5000000
Number of CPUs: 1
Page size: 4096

Off-chip DRAM Size: 16 GiB Channels: 1 Width: 64-bit Data Rate: 3205 MT/s
Warmup finished CPU 0 instructions: 1000003 cycles: 782230 cumulative IPC: 1.278 (Simulation time: 00 hr 00 min 07 sec)
Warmup complete CPU 0 instructions: 1000003 cycles: 782230 cumulative IPC: 1.278 (Simulation time: 00 hr 00 min 07 sec)
Simulation finished CPU 0 instructions: 5000003 cycles: 21243804 cumulative IPC: 0.2354 (Simulation time: 00 hr 01 min 45 sec)
Simulation complete CPU 0 instructions: 5000003 cycles: 21243804 cumulative IPC: 0.2354 (Simulation time: 00 hr 01 min 45 sec)

ChampSim completed all CPUs

=== Simulation ===
CPU 0 runs traces/620.omnetpp_s-141B.champsimtrace.xz

Region of Interest Statistics

CPU 0 cumulative IPC: 0.2354 instructions: 5000003 cycles: 21243804
CPU 0 Branch Prediction Accuracy: 93.13% MPKI: 14.39 Average ROB Occupancy at Mispredict: 43.31
Branch type MPKI
BRANCH_DIRECT_JUMP: 0.8132
BRANCH_INDIRECT: 0.3712
BRANCH_CONDITIONAL: 11.89
BRANCH_DIRECT_CALL: 0.0072
BRANCH_INDIRECT_CALL: 0.8716
BRANCH_RETURN: 0.4386

cpu0->cpu0_STLB TOTAL        ACCESS:     111760 HIT:      86473 MISS:      25287 MSHR_MERGE:          0
cpu0->cpu0_STLB LOAD         ACCESS:     111760 HIT:      86473 MISS:      25287 MSHR_MERGE:          0
cpu0->cpu0_STLB RFO          ACCESS:          0 HIT:          0 MISS:          0 MSHR_MERGE:          0
cpu0->cpu0_STLB PREFETCH     ACCESS:          0 HIT:          0 MISS:          0 MSHR_MERGE:          0
cpu0->cpu0_STLB WRITE        ACCESS:          0 HIT:          0 MISS:          0 MSHR_MERGE:          0
cpu0->cpu0_STLB TRANSLATION  ACCESS:          0 HIT:          0 MISS:          0 MSHR_MERGE:          0
cpu0->cpu0_STLB PREFETCH REQUESTED:          0 ISSUED:          0 USEFUL:          0 USELESS:          0
cpu0->cpu0_STLB AVERAGE MISS LATENCY: 479.9 cycles
cpu0->cpu0_L2C TOTAL        ACCESS:     206621 HIT:      72864 MISS:     133757 MSHR_MERGE:          0
cpu0->cpu0_L2C LOAD         ACCESS:      89530 HIT:      23212 MISS:      66318 MSHR_MERGE:          0
cpu0->cpu0_L2C RFO          ACCESS:      12188 HIT:       3032 MISS:       9156 MSHR_MERGE:          0
cpu0->cpu0_L2C PREFETCH     ACCESS:          0 HIT:          0 MISS:          0 MSHR_MERGE:          0
cpu0->cpu0_L2C WRITE        ACCESS:      48517 HIT:      31300 MISS:      17217 MSHR_MERGE:          0
cpu0->cpu0_L2C TRANSLATION  ACCESS:      56386 HIT:      15320 MISS:      41066 MSHR_MERGE:          0
cpu0->cpu0_L2C PREFETCH REQUESTED:          0 ISSUED:          0 USEFUL:          0 USELESS:          0
cpu0->cpu0_L2C AVERAGE MISS LATENCY: 130.6 cycles
cpu0->cpu0_L1I TOTAL        ACCESS:     676125 HIT:     671384 MISS:       4741 MSHR_MERGE:       1213
cpu0->cpu0_L1I LOAD         ACCESS:     676125 HIT:     671384 MISS:       4741 MSHR_MERGE:       1213
cpu0->cpu0_L1I RFO          ACCESS:          0 HIT:          0 MISS:          0 MSHR_MERGE:          0
cpu0->cpu0_L1I PREFETCH     ACCESS:          0 HIT:          0 MISS:          0 MSHR_MERGE:          0
cpu0->cpu0_L1I WRITE        ACCESS:          0 HIT:          0 MISS:          0 MSHR_MERGE:          0
cpu0->cpu0_L1I TRANSLATION  ACCESS:          0 HIT:          0 MISS:          0 MSHR_MERGE:          0
cpu0->cpu0_L1I PREFETCH REQUESTED:          0 ISSUED:          0 USEFUL:          0 USELESS:          0
cpu0->cpu0_L1I AVERAGE MISS LATENCY: 13.22 cycles
cpu0->cpu0_L1D TOTAL        ACCESS:    2039197 HIT:    1834911 MISS:     204286 MSHR_MERGE:      49710
cpu0->cpu0_L1D LOAD         ACCESS:    1066972 HIT:     956922 MISS:     110050 MSHR_MERGE:      24048
cpu0->cpu0_L1D RFO          ACCESS:          0 HIT:          0 MISS:          0 MSHR_MERGE:          0
cpu0->cpu0_L1D PREFETCH     ACCESS:          0 HIT:          0 MISS:          0 MSHR_MERGE:          0
cpu0->cpu0_L1D WRITE        ACCESS:     911162 HIT:     873464 MISS:      37698 MSHR_MERGE:      25510
cpu0->cpu0_L1D TRANSLATION  ACCESS:      61063 HIT:       4525 MISS:      56538 MSHR_MERGE:        152
cpu0->cpu0_L1D PREFETCH REQUESTED:          0 ISSUED:          0 USEFUL:          0 USELESS:          0
cpu0->cpu0_L1D AVERAGE MISS LATENCY: 121.2 cycles
cpu0->cpu0_ITLB TOTAL        ACCESS:     596522 HIT:     581362 MISS:      15160 MSHR_MERGE:       7350
cpu0->cpu0_ITLB LOAD         ACCESS:     596522 HIT:     581362 MISS:      15160 MSHR_MERGE:       7350
cpu0->cpu0_ITLB RFO          ACCESS:          0 HIT:          0 MISS:          0 MSHR_MERGE:          0
cpu0->cpu0_ITLB PREFETCH     ACCESS:          0 HIT:          0 MISS:          0 MSHR_MERGE:          0
cpu0->cpu0_ITLB WRITE        ACCESS:          0 HIT:          0 MISS:          0 MSHR_MERGE:          0
cpu0->cpu0_ITLB TRANSLATION  ACCESS:          0 HIT:          0 MISS:          0 MSHR_MERGE:          0
cpu0->cpu0_ITLB PREFETCH REQUESTED:          0 ISSUED:          0 USEFUL:          0 USELESS:          0
cpu0->cpu0_ITLB AVERAGE MISS LATENCY: 8.743 cycles
cpu0->cpu0_DTLB TOTAL        ACCESS:    1882598 HIT:    1760959 MISS:     121639 MSHR_MERGE:      17689
cpu0->cpu0_DTLB LOAD         ACCESS:    1882598 HIT:    1760959 MISS:     121639 MSHR_MERGE:      17689
cpu0->cpu0_DTLB RFO          ACCESS:          0 HIT:          0 MISS:          0 MSHR_MERGE:          0
cpu0->cpu0_DTLB PREFETCH     ACCESS:          0 HIT:          0 MISS:          0 MSHR_MERGE:          0
cpu0->cpu0_DTLB WRITE        ACCESS:          0 HIT:          0 MISS:          0 MSHR_MERGE:          0
cpu0->cpu0_DTLB TRANSLATION  ACCESS:          0 HIT:          0 MISS:          0 MSHR_MERGE:          0
cpu0->cpu0_DTLB PREFETCH REQUESTED:          0 ISSUED:          0 USEFUL:          0 USELESS:          0
cpu0->cpu0_DTLB AVERAGE MISS LATENCY: 121.7 cycles
cpu0->LLC TOTAL        ACCESS:     151698 HIT:      65444 MISS:      86254 MSHR_MERGE:          0
cpu0->LLC LOAD         ACCESS:      66318 HIT:      18023 MISS:      48295 MSHR_MERGE:          0
cpu0->LLC RFO          ACCESS:       9156 HIT:       2935 MISS:       6221 MSHR_MERGE:          0
cpu0->LLC PREFETCH     ACCESS:          0 HIT:          0 MISS:          0 MSHR_MERGE:          0
cpu0->LLC WRITE        ACCESS:      35158 HIT:      32767 MISS:       2391 MSHR_MERGE:          0
cpu0->LLC TRANSLATION  ACCESS:      41066 HIT:      11719 MISS:      29347 MSHR_MERGE:          0
cpu0->LLC PREFETCH REQUESTED:          0 ISSUED:          0 USEFUL:          0 USELESS:          0
cpu0->LLC AVERAGE MISS LATENCY: 180.7 cycles

DRAM Statistics

Channel 0 RQ ROW_BUFFER_HIT:        277
  ROW_BUFFER_MISS:      83585
  AVG DBUS CONGESTED CYCLE: 19.8
Channel 0 WQ ROW_BUFFER_HIT:       5780
  ROW_BUFFER_MISS:      14029
  FULL:          0
Channel 0 REFRESHES ISSUED:       1770
