[VMEM] WARNING: physical memory size is smaller than virtual memory size.

*** ChampSim Multicore Out-of-Order Simulator ***
Warmup Instructions: 1000000
Simulation Instructions: 5000000
Number of CPUs: 1
Page size: 4096

Off-chip DRAM Size: 16 GiB Channels: 1 Width: 64-bit Data Rate: 3205 MT/s
Warmup finished CPU 0 instructions: 1000003 cycles: 362441 cumulative IPC: 2.759 (Simulation time: 00 hr 00 min 03 sec)
Warmup complete CPU 0 instructions: 1000003 cycles: 362441 cumulative IPC: 2.759 (Simulation time: 00 hr 00 min 03 sec)
Simulation finished CPU 0 instructions: 5000002 cycles: 7938010 cumulative IPC: 0.6299 (Simulation time: 00 hr 00 min 42 sec)
Simulation complete CPU 0 instructions: 5000002 cycles: 7938010 cumulative IPC: 0.6299 (Simulation time: 00 hr 00 min 42 sec)

ChampSim completed all CPUs

=== Simulation ===
CPU 0 runs traces/623.xalancbmk_s-165B.champsimtrace.xz

Region of Interest Statistics

CPU 0 cumulative IPC: 0.6299 instructions: 5000002 cycles: 7938010
CPU 0 Branch Prediction Accuracy: 96.52% MPKI: 9.702 Average ROB Occupancy at Mispredict: 59.31
Branch type MPKI
BRANCH_DIRECT_JUMP: 0
BRANCH_INDIRECT: 0
BRANCH_CONDITIONAL: 9.701
BRANCH_DIRECT_CALL: 0
BRANCH_INDIRECT_CALL: 0
BRANCH_RETURN: 0.0002

cpu0->cpu0_STLB TOTAL        ACCESS:       1695 HIT:       1427 MISS:        268 MSHR_MERGE:          0
cpu0->cpu0_STLB LOAD         ACCESS:       1695 HIT:       1427 MISS:        268 MSHR_MERGE:          0
cpu0->cpu0_STLB RFO          ACCESS:          0 HIT:          0 MISS:          0 MSHR_MERGE:          0
cpu0->cpu0_STLB PREFETCH     ACCESS:          0 HIT:          0 MISS:          0 MSHR_MERGE:          0
cpu0->cpu0_STLB WRITE        ACCESS:          0 HIT:          0 MISS:          0 MSHR_MERGE:          0
cpu0->cpu0_STLB TRANSLATION  ACCESS:          0 HIT:          0 MISS:          0 MSHR_MERGE:          0
cpu0->cpu0_STLB PREFETCH REQUESTED:          0 ISSUED:          0 USEFUL:          0 USELESS:          0
cpu0->cpu0_STLB AVERAGE MISS LATENCY: 673.7 cycles
cpu0->cpu0_L2C TOTAL        ACCESS:      95426 HIT:      18283 MISS:      77143 MSHR_MERGE:          0
cpu0->cpu0_L2C LOAD         ACCESS:      95034 HIT:      18238 MISS:      76796 MSHR_MERGE:          0
cpu0->cpu0_L2C RFO          ACCESS:         32 HIT:          9 MISS:         23 MSHR_MERGE:          0
cpu0->cpu0_L2C PREFETCH     ACCESS:          0 HIT:          0 MISS:          0 MSHR_MERGE:          0
cpu0->cpu0_L2C WRITE        ACCESS:         46 HIT:         35 MISS:         11 MSHR_MERGE:          0
cpu0->cpu0_L2C TRANSLATION  ACCESS:        314 HIT:          1 MISS:        313 MSHR_MERGE:          0
cpu0->cpu0_L2C PREFETCH REQUESTED:          0 ISSUED:          0 USEFUL:          0 USELESS:          0
cpu0->cpu0_L2C AVERAGE MISS LATENCY: 102.4 cycles
cpu0->cpu0_L1I TOTAL        ACCESS:        165 HIT:        165 MISS:          0 MSHR_MERGE:          0
cpu0->cpu0_L1I LOAD         ACCESS:        165 HIT:        165 MISS:          0 MSHR_MERGE:          0
cpu0->cpu0_L1I RFO          ACCESS:          0 HIT:          0 MISS:          0 MSHR_MERGE:          0
cpu0->cpu0_L1I PREFETCH     ACCESS:          0 HIT:          0 MISS:          0 MSHR_MERGE:          0
cpu0->cpu0_L1I WRITE        ACCESS:          0 HIT:          0 MISS:          0 MSHR_MERGE:          0
cpu0->cpu0_L1I TRANSLATION  ACCESS:          0 HIT:          0 MISS:          0 MSHR_MERGE:          0
cpu0->cpu0_L1I PREFETCH REQUESTED:          0 ISSUED:          0 USEFUL:          0 USELESS:          0
cpu0->cpu0_L1I AVERAGE MISS LATENCY: - cycles
cpu0->cpu0_L1D TOTAL        ACCESS:    1409792 HIT:    1104770 MISS:     305022 MSHR_MERGE:     209642
cpu0->cpu0_L1D LOAD         ACCESS:    1343566 HIT:    1039019 MISS:     304547 MSHR_MERGE:     209513
cpu0->cpu0_L1D RFO          ACCESS:          0 HIT:          0 MISS:          0 MSHR_MERGE:          0
cpu0->cpu0_L1D PREFETCH     ACCESS:          0 HIT:          0 MISS:          0 MSHR_MERGE:          0
cpu0->cpu0_L1D WRITE        ACCESS:      65690 HIT:      65530 MISS:        160 MSHR_MERGE:        128
cpu0->cpu0_L1D TRANSLATION  ACCESS:        536 HIT:        221 MISS:        315 MSHR_MERGE:          1
cpu0->cpu0_L1D PREFETCH REQUESTED:          0 ISSUED:          0 USEFUL:          0 USELESS:          0
cpu0->cpu0_L1D AVERAGE MISS LATENCY: 91.63 cycles
cpu0->cpu0_ITLB TOTAL        ACCESS:        145 HIT:        145 MISS:          0 MSHR_MERGE:          0
cpu0->cpu0_ITLB LOAD         ACCESS:        145 HIT:        145 MISS:          0 MSHR_MERGE:          0
cpu0->cpu0_ITLB RFO          ACCESS:          0 HIT:          0 MISS:          0 MSHR_MERGE:          0
cpu0->cpu0_ITLB PREFETCH     ACCESS:          0 HIT:          0 MISS:          0 MSHR_MERGE:          0
cpu0->cpu0_ITLB WRITE        ACCESS:          0 HIT:          0 MISS:          0 MSHR_MERGE:          0
cpu0->cpu0_ITLB TRANSLATION  ACCESS:          0 HIT:          0 MISS:          0 MSHR_MERGE:          0
cpu0->cpu0_ITLB PREFETCH REQUESTED:          0 ISSUED:          0 USEFUL:          0 USELESS:          0
cpu0->cpu0_ITLB AVERAGE MISS LATENCY: - cycles
cpu0->cpu0_DTLB TOTAL        ACCESS:    1399339 HIT:    1394886 MISS:       4453 MSHR_MERGE:       2758
cpu0->cpu0_DTLB LOAD         ACCESS:    1399339 HIT:    1394886 MISS:       4453 MSHR_MERGE:       2758
cpu0->cpu0_DTLB RFO          ACCESS:          0 HIT:          0 MISS:          0 MSHR_MERGE:          0
cpu0->cpu0_DTLB PREFETCH     ACCESS:          0 HIT:          0 MISS:          0 MSHR_MERGE:          0
cpu0->cpu0_DTLB WRITE        ACCESS:          0 HIT:          0 MISS:          0 MSHR_MERGE:          0
cpu0->cpu0_DTLB TRANSLATION  ACCESS:          0 HIT:          0 MISS:          0 MSHR_MERGE:          0
cpu0->cpu0_DTLB PREFETCH REQUESTED:          0 ISSUED:          0 USEFUL:          0 USELESS:          0
cpu0->cpu0_DTLB AVERAGE MISS LATENCY: 111.7 cycles
cpu0->LLC TOTAL        ACCESS:      77159 HIT:      34183 MISS:      42976 MSHR_MERGE:          0
cpu0->LLC LOAD         ACCESS:      76796 HIT:      34153 MISS:      42643 MSHR_MERGE:          0
cpu0->LLC RFO          ACCESS:         23 HIT:          2 MISS:         21 MSHR_MERGE:          0
cpu0->LLC PREFETCH     ACCESS:          0 HIT:          0 MISS:          0 MSHR_MERGE:          0
cpu0->LLC WRITE        ACCESS:         27 HIT:         26 MISS:          1 MSHR_MERGE:          0
cpu0->LLC TRANSLATION  ACCESS:        313 HIT:          2 MISS:        311 MSHR_MERGE:          0
cpu0->LLC PREFETCH REQUESTED:          0 ISSUED:          0 USEFUL:          0 USELESS:          0
cpu0->LLC AVERAGE MISS LATENCY: 155.9 cycles

DRAM Statistics

Channel 0 RQ ROW_BUFFER_HIT:      10917
  ROW_BUFFER_MISS:      32058
  AVG DBUS CONGESTED CYCLE: 2.945
Channel 0 WQ ROW_BUFFER_HIT:          0
  ROW_BUFFER_MISS:          2
  FULL:          0
Channel 0 REFRESHES ISSUED:        661
