[VMEM] WARNING: physical memory size is smaller than virtual memory size.

*** ChampSim Multicore Out-of-Order Simulator ***
Warmup Instructions: 1000000
Simulation Instructions: 5000000
Number of CPUs: 1
Page size: 4096

Off-chip DRAM Size: 16 GiB Channels: 1 Width: 64-bit Data Rate: 3205 MT/s
Warmup finished CPU 0 instructions: 1000002 cycles: 319567 cumulative IPC: 3.129 (Simulation time: 00 hr 00 min 02 sec)
Warmup complete CPU 0 instructions: 1000002 cycles: 319567 cumulative IPC: 3.129 (Simulation time: 00 hr 00 min 02 sec)
Simulation finished CPU 0 instructions: 5000000 cycles: 5980260 cumulative IPC: 0.8361 (Simulation time: 00 hr 00 min 35 sec)
Simulation complete CPU 0 instructions: 5000000 cycles: 5980260 cumulative IPC: 0.8361 (Simulation time: 00 hr 00 min 35 sec)

ChampSim completed all CPUs

=== Simulation ===
CPU 0 runs traces/627.cam4_s-490B.champsimtrace.xz

Region of Interest Statistics

CPU 0 cumulative IPC: 0.8361 instructions: 5000000 cycles: 5980260
CPU 0 Branch Prediction Accuracy: 88.15% MPKI: 11.81 Average ROB Occupancy at Mispredict: 28.57
Branch type MPKI
BRANCH_DIRECT_JUMP: 0.0106
BRANCH_INDIRECT: 0.0004
BRANCH_CONDITIONAL: 11.76
BRANCH_DIRECT_CALL: 0.0174
BRANCH_INDIRECT_CALL: 0
BRANCH_RETURN: 0.0168

cpu0->cpu0_STLB TOTAL        ACCESS:       1571 HIT:       1133 MISS:        438 MSHR_MERGE:          0
cpu0->cpu0_STLB LOAD         ACCESS:       1571 HIT:       1133 MISS:        438 MSHR_MERGE:          0
cpu0->cpu0_STLB RFO          ACCESS:          0 HIT:          0 MISS:          0 MSHR_MERGE:          0
cpu0->cpu0_STLB PREFETCH     ACCESS:          0 HIT:          0 MISS:          0 MSHR_MERGE:          0
cpu0->cpu0_STLB WRITE        ACCESS:          0 HIT:          0 MISS:          0 MSHR_MERGE:          0
cpu0->cpu0_STLB TRANSLATION  ACCESS:          0 HIT:          0 MISS:          0 MSHR_MERGE:          0
cpu0->cpu0_STLB PREFETCH REQUESTED:          0 ISSUED:          0 USEFUL:          0 USELESS:          0
cpu0->cpu0_STLB AVERAGE MISS LATENCY: 708.7 cycles
cpu0->cpu0_L2C TOTAL        ACCESS:     126666 HIT:      41750 MISS:      84916 MSHR_MERGE:          0
cpu0->cpu0_L2C LOAD         ACCESS:      59747 HIT:      15296 MISS:      44451 MSHR_MERGE:          0
cpu0->cpu0_L2C RFO          ACCESS:      29582 HIT:       6617 MISS:      22965 MSHR_MERGE:          0
cpu0->cpu0_L2C PREFETCH     ACCESS:          0 HIT:          0 MISS:          0 MSHR_MERGE:          0
cpu0->cpu0_L2C WRITE        ACCESS:      36760 HIT:      19836 MISS:      16924 MSHR_MERGE:          0
cpu0->cpu0_L2C TRANSLATION  ACCESS:        577 HIT:          1 MISS:        576 MSHR_MERGE:          0
cpu0->cpu0_L2C PREFETCH REQUESTED:          0 ISSUED:          0 USEFUL:          0 USELESS:          0
cpu0->cpu0_L2C AVERAGE MISS LATENCY: 78.43 cycles
cpu0->cpu0_L1I TOTAL        ACCESS:     312265 HIT:     311751 MISS:        514 MSHR_MERGE:        193
cpu0->cpu0_L1I LOAD         ACCESS:     312265 HIT:     311751 MISS:        514 MSHR_MERGE:        193
cpu0->cpu0_L1I RFO          ACCESS:          0 HIT:          0 MISS:          0 MSHR_MERGE:          0
cpu0->cpu0_L1I PREFETCH     ACCESS:          0 HIT:          0 MISS:          0 MSHR_MERGE:          0
cpu0->cpu0_L1I WRITE        ACCESS:          0 HIT:          0 MISS:          0 MSHR_MERGE:          0
cpu0->cpu0_L1I TRANSLATION  ACCESS:          0 HIT:          0 MISS:          0 MSHR_MERGE:          0
cpu0->cpu0_L1I PREFETCH REQUESTED:          0 ISSUED:          0 USEFUL:          0 USELESS:          0
cpu0->cpu0_L1I AVERAGE MISS LATENCY: 216.8 cycles
cpu0->cpu0_L1D TOTAL        ACCESS:     985997 HIT:     720297 MISS:     265700 MSHR_MERGE:     176115
cpu0->cpu0_L1D LOAD         ACCESS:     665040 HIT:     534379 MISS:     130661 MSHR_MERGE:      71235
cpu0->cpu0_L1D RFO          ACCESS:          0 HIT:          0 MISS:          0 MSHR_MERGE:          0
cpu0->cpu0_L1D PREFETCH     ACCESS:          0 HIT:          0 MISS:          0 MSHR_MERGE:          0
cpu0->cpu0_L1D WRITE        ACCESS:     320078 HIT:     185618 MISS:     134460 MSHR_MERGE:     104878
cpu0->cpu0_L1D TRANSLATION  ACCESS:        879 HIT:        300 MISS:        579 MSHR_MERGE:          2
cpu0->cpu0_L1D PREFETCH REQUESTED:          0 ISSUED:          0 USEFUL:          0 USELESS:          0
cpu0->cpu0_L1D AVERAGE MISS LATENCY: 81.65 cycles
cpu0->cpu0_ITLB TOTAL        ACCESS:     288191 HIT:     288174 MISS:         17 MSHR_MERGE:         12
cpu0->cpu0_ITLB LOAD         ACCESS:     288191 HIT:     288174 MISS:         17 MSHR_MERGE:         12
cpu0->cpu0_ITLB RFO          ACCESS:          0 HIT:          0 MISS:          0 MSHR_MERGE:          0
cpu0->cpu0_ITLB PREFETCH     ACCESS:          0 HIT:          0 MISS:          0 MSHR_MERGE:          0
cpu0->cpu0_ITLB WRITE        ACCESS:          0 HIT:          0 MISS:          0 MSHR_MERGE:          0
cpu0->cpu0_ITLB TRANSLATION  ACCESS:          0 HIT:          0 MISS:          0 MSHR_MERGE:          0
cpu0->cpu0_ITLB PREFETCH REQUESTED:          0 ISSUED:          0 USEFUL:          0 USELESS:          0
cpu0->cpu0_ITLB AVERAGE MISS LATENCY: 724 cycles
cpu0->cpu0_DTLB TOTAL        ACCESS:     957825 HIT:     952705 MISS:       5120 MSHR_MERGE:       3554
cpu0->cpu0_DTLB LOAD         ACCESS:     957825 HIT:     952705 MISS:       5120 MSHR_MERGE:       3554
cpu0->cpu0_DTLB RFO          ACCESS:          0 HIT:          0 MISS:          0 MSHR_MERGE:          0
cpu0->cpu0_DTLB PREFETCH     ACCESS:          0 HIT:          0 MISS:          0 MSHR_MERGE:          0
cpu0->cpu0_DTLB WRITE        ACCESS:          0 HIT:          0 MISS:          0 MSHR_MERGE:          0
cpu0->cpu0_DTLB TRANSLATION  ACCESS:          0 HIT:          0 MISS:          0 MSHR_MERGE:          0
cpu0->cpu0_DTLB PREFETCH REQUESTED:          0 ISSUED:          0 USEFUL:          0 USELESS:          0
cpu0->cpu0_DTLB AVERAGE MISS LATENCY: 201.2 cycles
cpu0->LLC TOTAL        ACCESS:      97151 HIT:      66775 MISS:      30376 MSHR_MERGE:          0
cpu0->LLC LOAD         ACCESS:      44451 HIT:      28495 MISS:      15956 MSHR_MERGE:          0
cpu0->LLC RFO          ACCESS:      22965 HIT:       9694 MISS:      13271 MSHR_MERGE:          0
cpu0->LLC PREFETCH     ACCESS:          0 HIT:          0 MISS:          0 MSHR_MERGE:          0
cpu0->LLC WRITE        ACCESS:      29159 HIT:      28580 MISS:        579 MSHR_MERGE:          0
cpu0->LLC TRANSLATION  ACCESS:        576 HIT:          6 MISS:        570 MSHR_MERGE:          0
cpu0->LLC PREFETCH REQUESTED:          0 ISSUED:          0 USEFUL:          0 USELESS:          0
cpu0->LLC AVERAGE MISS LATENCY: 182.6 cycles

DRAM Statistics

Channel 0 RQ ROW_BUFFER_HIT:       3807
  ROW_BUFFER_MISS:      25985
  AVG DBUS CONGESTED CYCLE: 13.07
Channel 0 WQ ROW_BUFFER_HIT:       1384
  ROW_BUFFER_MISS:       3950
  FULL:          0
Channel 0 REFRESHES ISSUED:        498
