[VMEM] WARNING: physical memory size is smaller than virtual memory size.

*** ChampSim Multicore Out-of-Order Simulator ***
Warmup Instructions: 1000000
Simulation Instructions: 5000000
Number of CPUs: 1
Page size: 4096

Off-chip DRAM Size: 16 GiB Channels: 1 Width: 64-bit Data Rate: 3205 MT/s
Warmup finished CPU 0 instructions: 1000002 cycles: 369743 cumulative IPC: 2.705 (Simulation time: 00 hr 00 min 03 sec)
Warmup complete CPU 0 instructions: 1000002 cycles: 369743 cumulative IPC: 2.705 (Simulation time: 00 hr 00 min 03 sec)
Simulation finished CPU 0 instructions: 5000002 cycles: 4125454 cumulative IPC: 1.212 (Simulation time: 00 hr 00 min 31 sec)
Simulation complete CPU 0 instructions: 5000002 cycles: 4125454 cumulative IPC: 1.212 (Simulation time: 00 hr 00 min 31 sec)

ChampSim completed all CPUs

=== Simulation ===
CPU 0 runs traces/628.pop2_s-17B.champsimtrace.xz

Region of Interest Statistics

CPU 0 cumulative IPC: 1.212 instructions: 5000002 cycles: 4125454
CPU 0 Branch Prediction Accuracy: 96.39% MPKI: 4.136 Average ROB Occupancy at Mispredict: 86.47
Branch type MPKI
BRANCH_DIRECT_JUMP: 0.0532
BRANCH_INDIRECT: 0.002
BRANCH_CONDITIONAL: 4.06
BRANCH_DIRECT_CALL: 0.0116
BRANCH_INDIRECT_CALL: 0
BRANCH_RETURN: 0.009

cpu0->cpu0_STLB TOTAL        ACCESS:       4372 HIT:       4099 MISS:        273 MSHR_MERGE:          0
cpu0->cpu0_STLB LOAD         ACCESS:       4372 HIT:       4099 MISS:        273 MSHR_MERGE:          0
cpu0->cpu0_STLB RFO          ACCESS:          0 HIT:          0 MISS:          0 MSHR_MERGE:          0
cpu0->cpu0_STLB PREFETCH     ACCESS:          0 HIT:          0 MISS:          0 MSHR_MERGE:          0
cpu0->cpu0_STLB WRITE        ACCESS:          0 HIT:          0 MISS:          0 MSHR_MERGE:          0
cpu0->cpu0_STLB TRANSLATION  ACCESS:          0 HIT:          0 MISS:          0 MSHR_MERGE:          0
cpu0->cpu0_STLB PREFETCH REQUESTED:          0 ISSUED:          0 USEFUL:          0 USELESS:          0
cpu0->cpu0_STLB AVERAGE MISS LATENCY: 761.7 cycles
cpu0->cpu0_L2C TOTAL        ACCESS:     150220 HIT:     105231 MISS:      44989 MSHR_MERGE:          0
cpu0->cpu0_L2C LOAD         ACCESS:      81703 HIT:      45379 MISS:      36324 MSHR_MERGE:          0
cpu0->cpu0_L2C RFO          ACCESS:      27323 HIT:      22599 MISS:       4724 MSHR_MERGE:          0
cpu0->cpu0_L2C PREFETCH     ACCESS:          0 HIT:          0 MISS:          0 MSHR_MERGE:          0
cpu0->cpu0_L2C WRITE        ACCESS:      40620 HIT:      37220 MISS:       3400 MSHR_MERGE:          0
cpu0->cpu0_L2C TRANSLATION  ACCESS:        574 HIT:         33 MISS:        541 MSHR_MERGE:          0
cpu0->cpu0_L2C PREFETCH REQUESTED:          0 ISSUED:          0 USEFUL:          0 USELESS:          0
cpu0->cpu0_L2C AVERAGE MISS LATENCY: 81.22 cycles
cpu0->cpu0_L1I TOTAL        ACCESS:     373722 HIT:     363078 MISS:      10644 MSHR_MERGE:       4744
cpu0->cpu0_L1I LOAD         ACCESS:     373722 HIT:     363078 MISS:      10644 MSHR_MERGE:       4744
cpu0->cpu0_L1I RFO          ACCESS:          0 HIT:          0 MISS:          0 MSHR_MERGE:          0
cpu0->cpu0_L1I PREFETCH     ACCESS:          0 HIT:          0 MISS:          0 MSHR_MERGE:          0
cpu0->cpu0_L1I WRITE        ACCESS:          0 HIT:          0 MISS:          0 MSHR_MERGE:          0
cpu0->cpu0_L1I TRANSLATION  ACCESS:          0 HIT:          0 MISS:          0 MSHR_MERGE:          0
cpu0->cpu0_L1I PREFETCH REQUESTED:          0 ISSUED:          0 USEFUL:          0 USELESS:          0
cpu0->cpu0_L1I AVERAGE MISS LATENCY: 30.59 cycles
cpu0->cpu0_L1D TOTAL        ACCESS:    1305251 HIT:    1074315 MISS:     230936 MSHR_MERGE:     127236
cpu0->cpu0_L1D LOAD         ACCESS:     925390 HIT:     780930 MISS:     144460 MSHR_MERGE:      68657
cpu0->cpu0_L1D RFO          ACCESS:          0 HIT:          0 MISS:          0 MSHR_MERGE:          0
cpu0->cpu0_L1D PREFETCH     ACCESS:          0 HIT:          0 MISS:          0 MSHR_MERGE:          0
cpu0->cpu0_L1D WRITE        ACCESS:     379223 HIT:     293334 MISS:      85889 MSHR_MERGE:      58566
cpu0->cpu0_L1D TRANSLATION  ACCESS:        638 HIT:         51 MISS:        587 MSHR_MERGE:         13
cpu0->cpu0_L1D PREFETCH REQUESTED:          0 ISSUED:          0 USEFUL:          0 USELESS:          0
cpu0->cpu0_L1D AVERAGE MISS LATENCY: 42.23 cycles
cpu0->cpu0_ITLB TOTAL        ACCESS:     304437 HIT:     303807 MISS:        630 MSHR_MERGE:        382
cpu0->cpu0_ITLB LOAD         ACCESS:     304437 HIT:     303807 MISS:        630 MSHR_MERGE:        382
cpu0->cpu0_ITLB RFO          ACCESS:          0 HIT:          0 MISS:          0 MSHR_MERGE:          0
cpu0->cpu0_ITLB PREFETCH     ACCESS:          0 HIT:          0 MISS:          0 MSHR_MERGE:          0
cpu0->cpu0_ITLB WRITE        ACCESS:          0 HIT:          0 MISS:          0 MSHR_MERGE:          0
cpu0->cpu0_ITLB TRANSLATION  ACCESS:          0 HIT:          0 MISS:          0 MSHR_MERGE:          0
cpu0->cpu0_ITLB PREFETCH REQUESTED:          0 ISSUED:          0 USEFUL:          0 USELESS:          0
cpu0->cpu0_ITLB AVERAGE MISS LATENCY: 30.94 cycles
cpu0->cpu0_DTLB TOTAL        ACCESS:    1256535 HIT:    1249443 MISS:       7092 MSHR_MERGE:       2968
cpu0->cpu0_DTLB LOAD         ACCESS:    1256535 HIT:    1249443 MISS:       7092 MSHR_MERGE:       2968
cpu0->cpu0_DTLB RFO          ACCESS:          0 HIT:          0 MISS:          0 MSHR_MERGE:          0
cpu0->cpu0_DTLB PREFETCH     ACCESS:          0 HIT:          0 MISS:          0 MSHR_MERGE:          0
cpu0->cpu0_DTLB WRITE        ACCESS:          0 HIT:          0 MISS:          0 MSHR_MERGE:          0
cpu0->cpu0_DTLB TRANSLATION  ACCESS:          0 HIT:          0 MISS:          0 MSHR_MERGE:          0
cpu0->cpu0_DTLB PREFETCH REQUESTED:          0 ISSUED:          0 USEFUL:          0 USELESS:          0
cpu0->cpu0_DTLB AVERAGE MISS LATENCY: 53.93 cycles
cpu0->LLC TOTAL        ACCESS:      51711 HIT:      35531 MISS:      16180 MSHR_MERGE:          0
cpu0->LLC LOAD         ACCESS:      36324 HIT:      21832 MISS:      14492 MSHR_MERGE:          0
cpu0->LLC RFO          ACCESS:       4724 HIT:       3490 MISS:       1234 MSHR_MERGE:          0
cpu0->LLC PREFETCH     ACCESS:          0 HIT:          0 MISS:          0 MSHR_MERGE:          0
cpu0->LLC WRITE        ACCESS:      10122 HIT:      10087 MISS:         35 MSHR_MERGE:          0
cpu0->LLC TRANSLATION  ACCESS:        541 HIT:        122 MISS:        419 MSHR_MERGE:          0
cpu0->LLC PREFETCH REQUESTED:          0 ISSUED:          0 USEFUL:          0 USELESS:          0
cpu0->LLC AVERAGE MISS LATENCY: 185.4 cycles

DRAM Statistics

Channel 0 RQ ROW_BUFFER_HIT:        655
  ROW_BUFFER_MISS:      15490
  AVG DBUS CONGESTED CYCLE: 9.571
Channel 0 WQ ROW_BUFFER_HIT:        104
  ROW_BUFFER_MISS:        198
  FULL:          0
Channel 0 REFRESHES ISSUED:        344
