[VMEM] WARNING: physical memory size is smaller than virtual memory size.

*** ChampSim Multicore Out-of-Order Simulator ***
Warmup Instructions: 1000000
Simulation Instructions: 5000000
Number of CPUs: 1
Page size: 4096

Off-chip DRAM Size: 16 GiB Channels: 1 Width: 64-bit Data Rate: 3205 MT/s
Warmup finished CPU 0 instructions: 1000000 cycles: 289759 cumulative IPC: 3.451 (Simulation time: 00 hr 00 min 02 sec)
Warmup complete CPU 0 instructions: 1000000 cycles: 289759 cumulative IPC: 3.451 (Simulation time: 00 hr 00 min 02 sec)
Simulation finished CPU 0 instructions: 5000002 cycles: 3640403 cumulative IPC: 1.373 (Simulation time: 00 hr 00 min 23 sec)
Simulation complete CPU 0 instructions: 5000002 cycles: 3640403 cumulative IPC: 1.373 (Simulation time: 00 hr 00 min 23 sec)

ChampSim completed all CPUs

=== Simulation ===
CPU 0 runs traces/644.nab_s-12459B.champsimtrace.xz

Region of Interest Statistics

CPU 0 cumulative IPC: 1.373 instructions: 5000002 cycles: 3640403
CPU 0 Branch Prediction Accuracy: 90.89% MPKI: 13.01 Average ROB Occupancy at Mispredict: 40.92
Branch type MPKI
BRANCH_DIRECT_JUMP: 0.334
BRANCH_INDIRECT: 0
BRANCH_CONDITIONAL: 12.68
BRANCH_DIRECT_CALL: 0
BRANCH_INDIRECT_CALL: 0
BRANCH_RETURN: 0.0002

cpu0->cpu0_STLB TOTAL        ACCESS:       1086 HIT:       1072 MISS:         14 MSHR_MERGE:          0
cpu0->cpu0_STLB LOAD         ACCESS:       1086 HIT:       1072 MISS:         14 MSHR_MERGE:          0
cpu0->cpu0_STLB RFO          ACCESS:          0 HIT:          0 MISS:          0 MSHR_MERGE:          0
cpu0->cpu0_STLB PREFETCH     ACCESS:          0 HIT:          0 MISS:          0 MSHR_MERGE:          0
cpu0->cpu0_STLB WRITE        ACCESS:          0 HIT:          0 MISS:          0 MSHR_MERGE:          0
cpu0->cpu0_STLB TRANSLATION  ACCESS:          0 HIT:          0 MISS:          0 MSHR_MERGE:          0
cpu0->cpu0_STLB PREFETCH REQUESTED:          0 ISSUED:          0 USEFUL:          0 USELESS:          0
cpu0->cpu0_STLB AVERAGE MISS LATENCY: 733.1 cycles
cpu0->cpu0_L2C TOTAL        ACCESS:      33223 HIT:      30306 MISS:       2917 MSHR_MERGE:          0
cpu0->cpu0_L2C LOAD         ACCESS:      29211 HIT:      27042 MISS:       2169 MSHR_MERGE:          0
cpu0->cpu0_L2C RFO          ACCESS:       1630 HIT:        908 MISS:        722 MSHR_MERGE:          0
cpu0->cpu0_L2C PREFETCH     ACCESS:          0 HIT:          0 MISS:          0 MSHR_MERGE:          0
cpu0->cpu0_L2C WRITE        ACCESS:       2361 HIT:       2353 MISS:          8 MSHR_MERGE:          0
cpu0->cpu0_L2C TRANSLATION  ACCESS:         21 HIT:          3 MISS:         18 MSHR_MERGE:          0
cpu0->cpu0_L2C PREFETCH REQUESTED:          0 ISSUED:          0 USEFUL:          0 USELESS:          0
cpu0->cpu0_L2C AVERAGE MISS LATENCY: 82.73 cycles
cpu0->cpu0_L1I TOTAL        ACCESS:      17801 HIT:      17801 MISS:          0 MSHR_MERGE:          0
cpu0->cpu0_L1I LOAD         ACCESS:      17801 HIT:      17801 MISS:          0 MSHR_MERGE:          0
cpu0->cpu0_L1I RFO          ACCESS:          0 HIT:          0 MISS:          0 MSHR_MERGE:          0
cpu0->cpu0_L1I PREFETCH     ACCESS:          0 HIT:          0 MISS:          0 MSHR_MERGE:          0
cpu0->cpu0_L1I WRITE        ACCESS:          0 HIT:          0 MISS:          0 MSHR_MERGE:          0
cpu0->cpu0_L1I TRANSLATION  ACCESS:          0 HIT:          0 MISS:          0 MSHR_MERGE:          0
cpu0->cpu0_L1I PREFETCH REQUESTED:          0 ISSUED:          0 USEFUL:          0 USELESS:          0
cpu0->cpu0_L1I AVERAGE MISS LATENCY: - cycles
cpu0->cpu0_L1D TOTAL        ACCESS:    1394862 HIT:    1346785 MISS:      48077 MSHR_MERGE:      17215
cpu0->cpu0_L1D LOAD         ACCESS:     893228 HIT:     857891 MISS:      35337 MSHR_MERGE:       6126
cpu0->cpu0_L1D RFO          ACCESS:          0 HIT:          0 MISS:          0 MSHR_MERGE:          0
cpu0->cpu0_L1D PREFETCH     ACCESS:          0 HIT:          0 MISS:          0 MSHR_MERGE:          0
cpu0->cpu0_L1D WRITE        ACCESS:     501606 HIT:     488888 MISS:      12718 MSHR_MERGE:      11088
cpu0->cpu0_L1D TRANSLATION  ACCESS:         28 HIT:          6 MISS:         22 MSHR_MERGE:          1
cpu0->cpu0_L1D PREFETCH REQUESTED:          0 ISSUED:          0 USEFUL:          0 USELESS:          0
cpu0->cpu0_L1D AVERAGE MISS LATENCY: 15.92 cycles
cpu0->cpu0_ITLB TOTAL        ACCESS:      14133 HIT:      14133 MISS:          0 MSHR_MERGE:          0
cpu0->cpu0_ITLB LOAD         ACCESS:      14133 HIT:      14133 MISS:          0 MSHR_MERGE:          0
cpu0->cpu0_ITLB RFO          ACCESS:          0 HIT:          0 MISS:          0 MSHR_MERGE:          0
cpu0->cpu0_ITLB PREFETCH     ACCESS:          0 HIT:          0 MISS:          0 MSHR_MERGE:          0
cpu0->cpu0_ITLB WRITE        ACCESS:          0 HIT:          0 MISS:          0 MSHR_MERGE:          0
cpu0->cpu0_ITLB TRANSLATION  ACCESS:          0 HIT:          0 MISS:          0 MSHR_MERGE:          0
cpu0->cpu0_ITLB PREFETCH REQUESTED:          0 ISSUED:          0 USEFUL:          0 USELESS:          0
cpu0->cpu0_ITLB AVERAGE MISS LATENCY: - cycles
cpu0->cpu0_DTLB TOTAL        ACCESS:    1343494 HIT:    1342081 MISS:       1413 MSHR_MERGE:        327
cpu0->cpu0_DTLB LOAD         ACCESS:    1343494 HIT:    1342081 MISS:       1413 MSHR_MERGE:        327
cpu0->cpu0_DTLB RFO          ACCESS:          0 HIT:          0 MISS:          0 MSHR_MERGE:          0
cpu0->cpu0_DTLB PREFETCH     ACCESS:          0 HIT:          0 MISS:          0 MSHR_MERGE:          0
cpu0->cpu0_DTLB WRITE        ACCESS:          0 HIT:          0 MISS:          0 MSHR_MERGE:          0
cpu0->cpu0_DTLB TRANSLATION  ACCESS:          0 HIT:          0 MISS:          0 MSHR_MERGE:          0
cpu0->cpu0_DTLB PREFETCH REQUESTED:          0 ISSUED:          0 USEFUL:          0 USELESS:          0
cpu0->cpu0_DTLB AVERAGE MISS LATENCY: 14.46 cycles
cpu0->LLC TOTAL        ACCESS:       3000 HIT:       1859 MISS:       1141 MSHR_MERGE:          0
cpu0->LLC LOAD         ACCESS:       2169 HIT:       1768 MISS:        401 MSHR_MERGE:          0
cpu0->LLC RFO          ACCESS:        722 HIT:          0 MISS:        722 MSHR_MERGE:          0
cpu0->LLC PREFETCH     ACCESS:          0 HIT:          0 MISS:          0 MSHR_MERGE:          0
cpu0->LLC WRITE        ACCESS:         91 HIT:         91 MISS:          0 MSHR_MERGE:          0
cpu0->LLC TRANSLATION  ACCESS:         18 HIT:          0 MISS:         18 MSHR_MERGE:          0
cpu0->LLC PREFETCH REQUESTED:          0 ISSUED:          0 USEFUL:          0 USELESS:          0
cpu0->LLC AVERAGE MISS LATENCY: 172.2 cycles

DRAM Statistics

Channel 0 RQ ROW_BUFFER_HIT:        232
  ROW_BUFFER_MISS:        909
  AVG DBUS CONGESTED CYCLE: 2.674
Channel 0 WQ ROW_BUFFER_HIT:          0
  ROW_BUFFER_MISS:          0
  FULL:          0
Channel 0 REFRESHES ISSUED:        303
