[VMEM] WARNING: physical memory size is smaller than virtual memory size.

*** ChampSim Multicore Out-of-Order Simulator ***
Warmup Instructions: 1000000
Simulation Instructions: 5000000
Number of CPUs: 1
Page size: 4096

Off-chip DRAM Size: 16 GiB Channels: 1 Width: 64-bit Data Rate: 3205 MT/s
Warmup finished CPU 0 instructions: 1000003 cycles: 309817 cumulative IPC: 3.228 (Simulation time: 00 hr 00 min 03 sec)
Warmup complete CPU 0 instructions: 1000003 cycles: 309817 cumulative IPC: 3.228 (Simulation time: 00 hr 00 min 03 sec)
Simulation finished CPU 0 instructions: 5000004 cycles: 10497678 cumulative IPC: 0.4763 (Simulation time: 00 hr 01 min 09 sec)
Simulation complete CPU 0 instructions: 5000004 cycles: 10497678 cumulative IPC: 0.4763 (Simulation time: 00 hr 01 min 09 sec)

ChampSim completed all CPUs

=== Simulation ===
CPU 0 runs traces/649.fotonik3d_s-1176B.champsimtrace.xz

Region of Interest Statistics

CPU 0 cumulative IPC: 0.4763 instructions: 5000004 cycles: 10497678
CPU 0 Branch Prediction Accuracy: 99.97% MPKI: 0.0044 Average ROB Occupancy at Mispredict: 352
Branch type MPKI
BRANCH_DIRECT_JUMP: 0
BRANCH_INDIRECT: 0
BRANCH_CONDITIONAL: 0.0044
BRANCH_DIRECT_CALL: 0
BRANCH_INDIRECT_CALL: 0
BRANCH_RETURN: 0

cpu0->cpu0_STLB TOTAL        ACCESS:       1151 HIT:        459 MISS:        692 MSHR_MERGE:          0
cpu0->cpu0_STLB LOAD         ACCESS:       1151 HIT:        459 MISS:        692 MSHR_MERGE:          0
cpu0->cpu0_STLB RFO          ACCESS:          0 HIT:          0 MISS:          0 MSHR_MERGE:          0
cpu0->cpu0_STLB PREFETCH     ACCESS:          0 HIT:          0 MISS:          0 MSHR_MERGE:          0
cpu0->cpu0_STLB WRITE        ACCESS:          0 HIT:          0 MISS:          0 MSHR_MERGE:          0
cpu0->cpu0_STLB TRANSLATION  ACCESS:          0 HIT:          0 MISS:          0 MSHR_MERGE:          0
cpu0->cpu0_STLB PREFETCH REQUESTED:          0 ISSUED:          0 USEFUL:          0 USELESS:          0
cpu0->cpu0_STLB AVERAGE MISS LATENCY: 662.8 cycles
cpu0->cpu0_L2C TOTAL        ACCESS:     110903 HIT:      38033 MISS:      72870 MSHR_MERGE:          0
cpu0->cpu0_L2C LOAD         ACCESS:      66092 HIT:      21290 MISS:      44802 MSHR_MERGE:          0
cpu0->cpu0_L2C RFO          ACCESS:         77 HIT:         77 MISS:          0 MSHR_MERGE:          0
cpu0->cpu0_L2C PREFETCH     ACCESS:          0 HIT:          0 MISS:          0 MSHR_MERGE:          0
cpu0->cpu0_L2C WRITE        ACCESS:      43926 HIT:      16663 MISS:      27263 MSHR_MERGE:          0
cpu0->cpu0_L2C TRANSLATION  ACCESS:        808 HIT:          3 MISS:        805 MSHR_MERGE:          0
cpu0->cpu0_L2C PREFETCH REQUESTED:          0 ISSUED:          0 USEFUL:          0 USELESS:          0
cpu0->cpu0_L2C AVERAGE MISS LATENCY: 117.7 cycles
cpu0->cpu0_L1I TOTAL        ACCESS:     887464 HIT:     887464 MISS:          0 MSHR_MERGE:          0
cpu0->cpu0_L1I LOAD         ACCESS:     887464 HIT:     887464 MISS:          0 MSHR_MERGE:          0
cpu0->cpu0_L1I RFO          ACCESS:          0 HIT:          0 MISS:          0 MSHR_MERGE:          0
cpu0->cpu0_L1I PREFETCH     ACCESS:          0 HIT:          0 MISS:          0 MSHR_MERGE:          0
cpu0->cpu0_L1I WRITE        ACCESS:          0 HIT:          0 MISS:          0 MSHR_MERGE:          0
cpu0->cpu0_L1I TRANSLATION  ACCESS:          0 HIT:          0 MISS:          0 MSHR_MERGE:          0
cpu0->cpu0_L1I PREFETCH REQUESTED:          0 ISSUED:          0 USEFUL:          0 USELESS:          0
cpu0->cpu0_L1I AVERAGE MISS LATENCY: - cycles
cpu0->cpu0_L1D TOTAL        ACCESS:    1535763 HIT:    1282219 MISS:     253544 MSHR_MERGE:     186567
cpu0->cpu0_L1D LOAD         ACCESS:    1183346 HIT:     930859 MISS:     252487 MSHR_MERGE:     186395
cpu0->cpu0_L1D RFO          ACCESS:          0 HIT:          0 MISS:          0 MSHR_MERGE:          0
cpu0->cpu0_L1D PREFETCH     ACCESS:          0 HIT:          0 MISS:          0 MSHR_MERGE:          0
cpu0->cpu0_L1D WRITE        ACCESS:     351027 HIT:     350778 MISS:        249 MSHR_MERGE:        172
cpu0->cpu0_L1D TRANSLATION  ACCESS:       1390 HIT:        582 MISS:        808 MSHR_MERGE:          0
cpu0->cpu0_L1D PREFETCH REQUESTED:          0 ISSUED:          0 USEFUL:          0 USELESS:          0
cpu0->cpu0_L1D AVERAGE MISS LATENCY: 135.1 cycles
cpu0->cpu0_ITLB TOTAL        ACCESS:     712648 HIT:     712648 MISS:          0 MSHR_MERGE:          0
cpu0->cpu0_ITLB LOAD         ACCESS:     712648 HIT:     712648 MISS:          0 MSHR_MERGE:          0
cpu0->cpu0_ITLB RFO          ACCESS:          0 HIT:          0 MISS:          0 MSHR_MERGE:          0
cpu0->cpu0_ITLB PREFETCH     ACCESS:          0 HIT:          0 MISS:          0 MSHR_MERGE:          0
cpu0->cpu0_ITLB WRITE        ACCESS:          0 HIT:          0 MISS:          0 MSHR_MERGE:          0
cpu0->cpu0_ITLB TRANSLATION  ACCESS:          0 HIT:          0 MISS:          0 MSHR_MERGE:          0
cpu0->cpu0_ITLB PREFETCH REQUESTED:          0 ISSUED:          0 USEFUL:          0 USELESS:          0
cpu0->cpu0_ITLB AVERAGE MISS LATENCY: - cycles
cpu0->cpu0_DTLB TOTAL        ACCESS:    1413945 HIT:    1410018 MISS:       3927 MSHR_MERGE:       2776
cpu0->cpu0_DTLB LOAD         ACCESS:    1413945 HIT:    1410018 MISS:       3927 MSHR_MERGE:       2776
cpu0->cpu0_DTLB RFO          ACCESS:          0 HIT:          0 MISS:          0 MSHR_MERGE:          0
cpu0->cpu0_DTLB PREFETCH     ACCESS:          0 HIT:          0 MISS:          0 MSHR_MERGE:          0
cpu0->cpu0_DTLB WRITE        ACCESS:          0 HIT:          0 MISS:          0 MSHR_MERGE:          0
cpu0->cpu0_DTLB TRANSLATION  ACCESS:          0 HIT:          0 MISS:          0 MSHR_MERGE:          0
cpu0->cpu0_DTLB PREFETCH REQUESTED:          0 ISSUED:          0 USEFUL:          0 USELESS:          0
cpu0->cpu0_DTLB AVERAGE MISS LATENCY: 404.1 cycles
cpu0->LLC TOTAL        ACCESS:      88917 HIT:      43304 MISS:      45613 MSHR_MERGE:          0
cpu0->LLC LOAD         ACCESS:      44802 HIT:        954 MISS:      43848 MSHR_MERGE:          0
cpu0->LLC RFO          ACCESS:          0 HIT:          0 MISS:          0 MSHR_MERGE:          0
cpu0->LLC PREFETCH     ACCESS:          0 HIT:          0 MISS:          0 MSHR_MERGE:          0
cpu0->LLC WRITE        ACCESS:      43310 HIT:      42333 MISS:        977 MSHR_MERGE:          0
cpu0->LLC TRANSLATION  ACCESS:        805 HIT:         17 MISS:        788 MSHR_MERGE:          0
cpu0->LLC PREFETCH REQUESTED:          0 ISSUED:          0 USEFUL:          0 USELESS:          0
cpu0->LLC AVERAGE MISS LATENCY: 169.8 cycles

DRAM Statistics

Channel 0 RQ ROW_BUFFER_HIT:       7994
  ROW_BUFFER_MISS:      36642
  AVG DBUS CONGESTED CYCLE: 14.34
Channel 0 WQ ROW_BUFFER_HIT:       6403
  ROW_BUFFER_MISS:      10700
  FULL:          0
Channel 0 REFRESHES ISSUED:        875
