[VMEM] WARNING: physical memory size is smaller than virtual memory size.

*** ChampSim Multicore Out-of-Order Simulator ***
Warmup Instructions: 1000000
Simulation Instructions: 5000000
Number of CPUs: 1
Page size: 4096

Off-chip DRAM Size: 16 GiB Channels: 1 Width: 64-bit Data Rate: 3205 MT/s
Warmup finished CPU 0 instructions: 1000002 cycles: 263789 cumulative IPC: 3.791 (Simulation time: 00 hr 00 min 02 sec)
Warmup complete CPU 0 instructions: 1000002 cycles: 263789 cumulative IPC: 3.791 (Simulation time: 00 hr 00 min 02 sec)
Simulation finished CPU 0 instructions: 5000002 cycles: 4675505 cumulative IPC: 1.069 (Simulation time: 00 hr 00 min 36 sec)
Simulation complete CPU 0 instructions: 5000002 cycles: 4675505 cumulative IPC: 1.069 (Simulation time: 00 hr 00 min 36 sec)

ChampSim completed all CPUs

=== Simulation ===
CPU 0 runs traces/654.roms_s-293B.champsimtrace.xz

Region of Interest Statistics

CPU 0 cumulative IPC: 1.069 instructions: 5000002 cycles: 4675505
CPU 0 Branch Prediction Accuracy: 99.77% MPKI: 0.0354 Average ROB Occupancy at Mispredict: 294.2
Branch type MPKI
BRANCH_DIRECT_JUMP: 0.0002
BRANCH_INDIRECT: 0
BRANCH_CONDITIONAL: 0.0352
BRANCH_DIRECT_CALL: 0
BRANCH_INDIRECT_CALL: 0
BRANCH_RETURN: 0

cpu0->cpu0_STLB TOTAL        ACCESS:       1267 HIT:        369 MISS:        898 MSHR_MERGE:          0
cpu0->cpu0_STLB LOAD         ACCESS:       1267 HIT:        369 MISS:        898 MSHR_MERGE:          0
cpu0->cpu0_STLB RFO          ACCESS:          0 HIT:          0 MISS:          0 MSHR_MERGE:          0
cpu0->cpu0_STLB PREFETCH     ACCESS:          0 HIT:          0 MISS:          0 MSHR_MERGE:          0
cpu0->cpu0_STLB WRITE        ACCESS:          0 HIT:          0 MISS:          0 MSHR_MERGE:          0
cpu0->cpu0_STLB TRANSLATION  ACCESS:          0 HIT:          0 MISS:          0 MSHR_MERGE:          0
cpu0->cpu0_STLB PREFETCH REQUESTED:          0 ISSUED:          0 USEFUL:          0 USELESS:          0
cpu0->cpu0_STLB AVERAGE MISS LATENCY: 919.9 cycles
cpu0->cpu0_L2C TOTAL        ACCESS:      96129 HIT:      21759 MISS:      74370 MSHR_MERGE:          0
cpu0->cpu0_L2C LOAD         ACCESS:      43885 HIT:      10794 MISS:      33091 MSHR_MERGE:          0
cpu0->cpu0_L2C RFO          ACCESS:      25180 HIT:        588 MISS:      24592 MSHR_MERGE:          0
cpu0->cpu0_L2C PREFETCH     ACCESS:          0 HIT:          0 MISS:          0 MSHR_MERGE:          0
cpu0->cpu0_L2C WRITE        ACCESS:      25267 HIT:      10323 MISS:      14944 MSHR_MERGE:          0
cpu0->cpu0_L2C TRANSLATION  ACCESS:       1797 HIT:         54 MISS:       1743 MSHR_MERGE:          0
cpu0->cpu0_L2C PREFETCH REQUESTED:          0 ISSUED:          0 USEFUL:          0 USELESS:          0
cpu0->cpu0_L2C AVERAGE MISS LATENCY: 137.8 cycles
cpu0->cpu0_L1I TOTAL        ACCESS:    1010109 HIT:    1010045 MISS:         64 MSHR_MERGE:         22
cpu0->cpu0_L1I LOAD         ACCESS:    1010109 HIT:    1010045 MISS:         64 MSHR_MERGE:         22
cpu0->cpu0_L1I RFO          ACCESS:          0 HIT:          0 MISS:          0 MSHR_MERGE:          0
cpu0->cpu0_L1I PREFETCH     ACCESS:          0 HIT:          0 MISS:          0 MSHR_MERGE:          0
cpu0->cpu0_L1I WRITE        ACCESS:          0 HIT:          0 MISS:          0 MSHR_MERGE:          0
cpu0->cpu0_L1I TRANSLATION  ACCESS:          0 HIT:          0 MISS:          0 MSHR_MERGE:          0
cpu0->cpu0_L1I PREFETCH REQUESTED:          0 ISSUED:          0 USEFUL:          0 USELESS:          0
cpu0->cpu0_L1I AVERAGE MISS LATENCY: 260.6 cycles
cpu0->cpu0_L1D TOTAL        ACCESS:    1594100 HIT:    1417677 MISS:     176423 MSHR_MERGE:     105596
cpu0->cpu0_L1D LOAD         ACCESS:    1140472 HIT:    1065201 MISS:      75271 MSHR_MERGE:      31427
cpu0->cpu0_L1D RFO          ACCESS:          0 HIT:          0 MISS:          0 MSHR_MERGE:          0
cpu0->cpu0_L1D PREFETCH     ACCESS:          0 HIT:          0 MISS:          0 MSHR_MERGE:          0
cpu0->cpu0_L1D WRITE        ACCESS:     451515 HIT:     352170 MISS:      99345 MSHR_MERGE:      74159
cpu0->cpu0_L1D TRANSLATION  ACCESS:       2113 HIT:        306 MISS:       1807 MSHR_MERGE:         10
cpu0->cpu0_L1D PREFETCH REQUESTED:          0 ISSUED:          0 USEFUL:          0 USELESS:          0
cpu0->cpu0_L1D AVERAGE MISS LATENCY: 152.5 cycles
cpu0->cpu0_ITLB TOTAL        ACCESS:     766793 HIT:     766792 MISS:          1 MSHR_MERGE:          0
cpu0->cpu0_ITLB LOAD         ACCESS:     766793 HIT:     766792 MISS:          1 MSHR_MERGE:          0
cpu0->cpu0_ITLB RFO          ACCESS:          0 HIT:          0 MISS:          0 MSHR_MERGE:          0
cpu0->cpu0_ITLB PREFETCH     ACCESS:          0 HIT:          0 MISS:          0 MSHR_MERGE:          0
cpu0->cpu0_ITLB WRITE        ACCESS:          0 HIT:          0 MISS:          0 MSHR_MERGE:          0
cpu0->cpu0_ITLB TRANSLATION  ACCESS:          0 HIT:          0 MISS:          0 MSHR_MERGE:          0
cpu0->cpu0_ITLB PREFETCH REQUESTED:          0 ISSUED:          0 USEFUL:          0 USELESS:          0
cpu0->cpu0_ITLB AVERAGE MISS LATENCY: 682 cycles
cpu0->cpu0_DTLB TOTAL        ACCESS:    1513191 HIT:    1507403 MISS:       5788 MSHR_MERGE:       4522
cpu0->cpu0_DTLB LOAD         ACCESS:    1513191 HIT:    1507403 MISS:       5788 MSHR_MERGE:       4522
cpu0->cpu0_DTLB RFO          ACCESS:          0 HIT:          0 MISS:          0 MSHR_MERGE:          0
cpu0->cpu0_DTLB PREFETCH     ACCESS:          0 HIT:          0 MISS:          0 MSHR_MERGE:          0
cpu0->cpu0_DTLB WRITE        ACCESS:          0 HIT:          0 MISS:          0 MSHR_MERGE:          0
cpu0->cpu0_DTLB TRANSLATION  ACCESS:          0 HIT:          0 MISS:          0 MSHR_MERGE:          0
cpu0->cpu0_DTLB PREFETCH REQUESTED:          0 ISSUED:          0 USEFUL:          0 USELESS:          0
cpu0->cpu0_DTLB AVERAGE MISS LATENCY: 657.7 cycles
cpu0->LLC TOTAL        ACCESS:      85301 HIT:      41132 MISS:      44169 MSHR_MERGE:          0
cpu0->LLC LOAD         ACCESS:      33091 HIT:      14891 MISS:      18200 MSHR_MERGE:          0
cpu0->LLC RFO          ACCESS:      24592 HIT:       1537 MISS:      23055 MSHR_MERGE:          0
cpu0->LLC PREFETCH     ACCESS:          0 HIT:          0 MISS:          0 MSHR_MERGE:          0
cpu0->LLC WRITE        ACCESS:      25875 HIT:      24615 MISS:       1260 MSHR_MERGE:          0
cpu0->LLC TRANSLATION  ACCESS:       1743 HIT:         89 MISS:       1654 MSHR_MERGE:          0
cpu0->LLC PREFETCH REQUESTED:          0 ISSUED:          0 USEFUL:          0 USELESS:          0
cpu0->LLC AVERAGE MISS LATENCY: 209.7 cycles

DRAM Statistics

Channel 0 RQ ROW_BUFFER_HIT:        251
  ROW_BUFFER_MISS:      42624
  AVG DBUS CONGESTED CYCLE: 9.171
Channel 0 WQ ROW_BUFFER_HIT:       2390
  ROW_BUFFER_MISS:       5417
  FULL:          0
Channel 0 REFRESHES ISSUED:        390
