[VMEM] WARNING: physical memory size is smaller than virtual memory size.

*** ChampSim Multicore Out-of-Order Simulator ***
Warmup Instructions: 2000000
Simulation Instructions: 10000000
Number of CPUs: 1
Page size: 4096

Off-chip DRAM Size: 16 GiB Channels: 1 Width: 64-bit Data Rate: 3205 MT/s
Warmup finished CPU 0 instructions: 2000000 cycles: 579025 cumulative IPC: 3.454 (Simulation time: 00 hr 00 min 06 sec)
Warmup complete CPU 0 instructions: 2000000 cycles: 579025 cumulative IPC: 3.454 (Simulation time: 00 hr 00 min 06 sec)
Heartbeat CPU 0 instructions: 10000002 cycles: 4321902 heartbeat IPC: 2.314 cumulative IPC: 2.137 (Simulation time: 00 hr 00 min 32 sec)
Simulation finished CPU 0 instructions: 10000000 cycles: 4665496 cumulative IPC: 2.143 (Simulation time: 00 hr 00 min 39 sec)
Simulation complete CPU 0 instructions: 10000000 cycles: 4665496 cumulative IPC: 2.143 (Simulation time: 00 hr 00 min 39 sec)

ChampSim completed all CPUs

=== Simulation ===
CPU 0 runs traces/600.perlbench_s-1273B.champsimtrace.xz

Region of Interest Statistics

CPU 0 cumulative IPC: 2.143 instructions: 10000000 cycles: 4665496
CPU 0 Branch Prediction Accuracy: 97.65% MPKI: 3.157 Average ROB Occupancy at Mispredict: 119.4
Branch type MPKI
BRANCH_DIRECT_JUMP: 0.0185
BRANCH_INDIRECT: 0.0036
BRANCH_CONDITIONAL: 3.131
BRANCH_DIRECT_CALL: 0.0017
BRANCH_INDIRECT_CALL: 0.0013
BRANCH_RETURN: 0.0018

cpu0->cpu0_STLB TOTAL        ACCESS:       1693 HIT:       1602 MISS:         91 MSHR_MERGE:          0
cpu0->cpu0_STLB LOAD         ACCESS:       1693 HIT:       1602 MISS:         91 MSHR_MERGE:          0
cpu0->cpu0_STLB RFO          ACCESS:          0 HIT:          0 MISS:          0 MSHR_MERGE:          0
cpu0->cpu0_STLB PREFETCH     ACCESS:          0 HIT:          0 MISS:          0 MSHR_MERGE:          0
cpu0->cpu0_STLB WRITE        ACCESS:          0 HIT:          0 MISS:          0 MSHR_MERGE:          0
cpu0->cpu0_STLB TRANSLATION  ACCESS:          0 HIT:          0 MISS:          0 MSHR_MERGE:          0
cpu0->cpu0_STLB PREFETCH REQUESTED:          0 ISSUED:          0 USEFUL:          0 USELESS:          0
cpu0->cpu0_STLB AVERAGE MISS LATENCY: 773.8 cycles
cpu0->cpu0_L2C TOTAL        ACCESS:       1103 HIT:        299 MISS:        804 MSHR_MERGE:          0
cpu0->cpu0_L2C LOAD         ACCESS:        874 HIT:        255 MISS:        619 MSHR_MERGE:          0
cpu0->cpu0_L2C RFO          ACCESS:         23 HIT:          3 MISS:         20 MSHR_MERGE:          0
cpu0->cpu0_L2C PREFETCH     ACCESS:          0 HIT:          0 MISS:          0 MSHR_MERGE:          0
cpu0->cpu0_L2C WRITE        ACCESS:         39 HIT:         39 MISS:          0 MSHR_MERGE:          0
cpu0->cpu0_L2C TRANSLATION  ACCESS:        167 HIT:          2 MISS:        165 MSHR_MERGE:          0
cpu0->cpu0_L2C PREFETCH REQUESTED:          0 ISSUED:          0 USEFUL:          0 USELESS:          0
cpu0->cpu0_L2C AVERAGE MISS LATENCY: 190.2 cycles
cpu0->cpu0_L1I TOTAL        ACCESS:     320129 HIT:     319685 MISS:        444 MSHR_MERGE:         84
cpu0->cpu0_L1I LOAD         ACCESS:     320129 HIT:     319685 MISS:        444 MSHR_MERGE:         84
cpu0->cpu0_L1I RFO          ACCESS:          0 HIT:          0 MISS:          0 MSHR_MERGE:          0
cpu0->cpu0_L1I PREFETCH     ACCESS:          0 HIT:          0 MISS:          0 MSHR_MERGE:          0
cpu0->cpu0_L1I WRITE        ACCESS:          0 HIT:          0 MISS:          0 MSHR_MERGE:          0
cpu0->cpu0_L1I TRANSLATION  ACCESS:          0 HIT:          0 MISS:          0 MSHR_MERGE:          0
cpu0->cpu0_L1I PREFETCH REQUESTED:          0 ISSUED:          0 USEFUL:          0 USELESS:          0
cpu0->cpu0_L1I AVERAGE MISS LATENCY: 65.53 cycles
cpu0->cpu0_L1D TOTAL        ACCESS:    3234654 HIT:    3233698 MISS:        956 MSHR_MERGE:        252
cpu0->cpu0_L1D LOAD         ACCESS:    1282377 HIT:    1281664 MISS:        713 MSHR_MERGE:        199
cpu0->cpu0_L1D RFO          ACCESS:          0 HIT:          0 MISS:          0 MSHR_MERGE:          0
cpu0->cpu0_L1D PREFETCH     ACCESS:          0 HIT:          0 MISS:          0 MSHR_MERGE:          0
cpu0->cpu0_L1D WRITE        ACCESS:    1952091 HIT:    1952015 MISS:         76 MSHR_MERGE:         53
cpu0->cpu0_L1D TRANSLATION  ACCESS:        186 HIT:         19 MISS:        167 MSHR_MERGE:          0
cpu0->cpu0_L1D PREFETCH REQUESTED:          0 ISSUED:          0 USEFUL:          0 USELESS:          0
cpu0->cpu0_L1D AVERAGE MISS LATENCY: 196.5 cycles
cpu0->cpu0_ITLB TOTAL        ACCESS:     284387 HIT:     284318 MISS:         69 MSHR_MERGE:         44
cpu0->cpu0_ITLB LOAD         ACCESS:     284387 HIT:     284318 MISS:         69 MSHR_MERGE:         44
cpu0->cpu0_ITLB RFO          ACCESS:          0 HIT:          0 MISS:          0 MSHR_MERGE:          0
cpu0->cpu0_ITLB PREFETCH     ACCESS:          0 HIT:          0 MISS:          0 MSHR_MERGE:          0
cpu0->cpu0_ITLB WRITE        ACCESS:          0 HIT:          0 MISS:          0 MSHR_MERGE:          0
cpu0->cpu0_ITLB TRANSLATION  ACCESS:          0 HIT:          0 MISS:          0 MSHR_MERGE:          0
cpu0->cpu0_ITLB PREFETCH REQUESTED:          0 ISSUED:          0 USEFUL:          0 USELESS:          0
cpu0->cpu0_ITLB AVERAGE MISS LATENCY: 207.4 cycles
cpu0->cpu0_DTLB TOTAL        ACCESS:    2929582 HIT:    2927620 MISS:       1962 MSHR_MERGE:        294
cpu0->cpu0_DTLB LOAD         ACCESS:    2929582 HIT:    2927620 MISS:       1962 MSHR_MERGE:        294
cpu0->cpu0_DTLB RFO          ACCESS:          0 HIT:          0 MISS:          0 MSHR_MERGE:          0
cpu0->cpu0_DTLB PREFETCH     ACCESS:          0 HIT:          0 MISS:          0 MSHR_MERGE:          0
cpu0->cpu0_DTLB WRITE        ACCESS:          0 HIT:          0 MISS:          0 MSHR_MERGE:          0
cpu0->cpu0_DTLB TRANSLATION  ACCESS:          0 HIT:          0 MISS:          0 MSHR_MERGE:          0
cpu0->cpu0_DTLB PREFETCH REQUESTED:          0 ISSUED:          0 USEFUL:          0 USELESS:          0
cpu0->cpu0_DTLB AVERAGE MISS LATENCY: 44.24 cycles
cpu0->LLC TOTAL        ACCESS:        804 HIT:          0 MISS:        804 MSHR_MERGE:          0
cpu0->LLC LOAD         ACCESS:        619 HIT:          0 MISS:        619 MSHR_MERGE:          0
cpu0->LLC RFO          ACCESS:         20 HIT:          0 MISS:         20 MSHR_MERGE:          0
cpu0->LLC PREFETCH     ACCESS:          0 HIT:          0 MISS:          0 MSHR_MERGE:          0
cpu0->LLC WRITE        ACCESS:          0 HIT:          0 MISS:          0 MSHR_MERGE:          0
cpu0->LLC TRANSLATION  ACCESS:        165 HIT:          0 MISS:        165 MSHR_MERGE:          0
cpu0->LLC PREFETCH REQUESTED:          0 ISSUED:          0 USEFUL:          0 USELESS:          0
cpu0->LLC AVERAGE MISS LATENCY: 174.2 cycles

DRAM Statistics

Channel 0 RQ ROW_BUFFER_HIT:          4
  ROW_BUFFER_MISS:        800
  AVG DBUS CONGESTED CYCLE: 2.844
Channel 0 WQ ROW_BUFFER_HIT:          0
  ROW_BUFFER_MISS:          0
  FULL:          0
Channel 0 REFRESHES ISSUED:        389
