[VMEM] WARNING: physical memory size is smaller than virtual memory size.

*** ChampSim Multicore Out-of-Order Simulator ***
Warmup Instructions: 2000000
Simulation Instructions: 10000000
Number of CPUs: 1
Page size: 4096

Off-chip DRAM Size: 16 GiB Channels: 1 Width: 64-bit Data Rate: 3205 MT/s
Warmup finished CPU 0 instructions: 2000002 cycles: 566322 cumulative IPC: 3.532 (Simulation time: 00 hr 00 min 06 sec)
Warmup complete CPU 0 instructions: 2000002 cycles: 566322 cumulative IPC: 3.532 (Simulation time: 00 hr 00 min 06 sec)
Heartbeat CPU 0 instructions: 10000004 cycles: 9744895 heartbeat IPC: 1.026 cumulative IPC: 0.8716 (Simulation time: 00 hr 01 min 03 sec)
Simulation finished CPU 0 instructions: 10000000 cycles: 11454003 cumulative IPC: 0.8731 (Simulation time: 00 hr 01 min 17 sec)
Simulation complete CPU 0 instructions: 10000000 cycles: 11454003 cumulative IPC: 0.8731 (Simulation time: 00 hr 01 min 17 sec)

ChampSim completed all CPUs

=== Simulation ===
CPU 0 runs traces/603.bwaves_s-2931B.champsimtrace.xz

Region of Interest Statistics

CPU 0 cumulative IPC: 0.8731 instructions: 10000000 cycles: 11454003
CPU 0 Branch Prediction Accuracy: 80.62% MPKI: 1.635 Average ROB Occupancy at Mispredict: 296.8
Branch type MPKI
BRANCH_DIRECT_JUMP: 0
BRANCH_INDIRECT: 0
BRANCH_CONDITIONAL: 1.635
BRANCH_DIRECT_CALL: 0
BRANCH_INDIRECT_CALL: 0
BRANCH_RETURN: 0

cpu0->cpu0_STLB TOTAL        ACCESS:      16833 HIT:      14705 MISS:       2128 MSHR_MERGE:          0
cpu0->cpu0_STLB LOAD         ACCESS:      16833 HIT:      14705 MISS:       2128 MSHR_MERGE:          0
cpu0->cpu0_STLB RFO          ACCESS:          0 HIT:          0 MISS:          0 MSHR_MERGE:          0
cpu0->cpu0_STLB PREFETCH     ACCESS:          0 HIT:          0 MISS:          0 MSHR_MERGE:          0
cpu0->cpu0_STLB WRITE        ACCESS:          0 HIT:          0 MISS:          0 MSHR_MERGE:          0
cpu0->cpu0_STLB TRANSLATION  ACCESS:          0 HIT:          0 MISS:          0 MSHR_MERGE:          0
cpu0->cpu0_STLB PREFETCH REQUESTED:          0 ISSUED:          0 USEFUL:          0 USELESS:          0
cpu0->cpu0_STLB AVERAGE MISS LATENCY: 700 cycles
cpu0->cpu0_L2C TOTAL        ACCESS:     234740 HIT:      85702 MISS:     149038 MSHR_MERGE:          0
cpu0->cpu0_L2C LOAD         ACCESS:     103694 HIT:      16654 MISS:      87040 MSHR_MERGE:          0
cpu0->cpu0_L2C RFO          ACCESS:      63006 HIT:       3464 MISS:      59542 MSHR_MERGE:          0
cpu0->cpu0_L2C PREFETCH     ACCESS:          0 HIT:          0 MISS:          0 MSHR_MERGE:          0
cpu0->cpu0_L2C WRITE        ACCESS:      63799 HIT:      63795 MISS:          4 MSHR_MERGE:          0
cpu0->cpu0_L2C TRANSLATION  ACCESS:       4241 HIT:       1789 MISS:       2452 MSHR_MERGE:          0
cpu0->cpu0_L2C PREFETCH REQUESTED:          0 ISSUED:          0 USEFUL:          0 USELESS:          0
cpu0->cpu0_L2C AVERAGE MISS LATENCY: 223.9 cycles
cpu0->cpu0_L1I TOTAL        ACCESS:    1134297 HIT:    1134297 MISS:          0 MSHR_MERGE:          0
cpu0->cpu0_L1I LOAD         ACCESS:    1134297 HIT:    1134297 MISS:          0 MSHR_MERGE:          0
cpu0->cpu0_L1I RFO          ACCESS:          0 HIT:          0 MISS:          0 MSHR_MERGE:          0
cpu0->cpu0_L1I PREFETCH     ACCESS:          0 HIT:          0 MISS:          0 MSHR_MERGE:          0
cpu0->cpu0_L1I WRITE        ACCESS:          0 HIT:          0 MISS:          0 MSHR_MERGE:          0
cpu0->cpu0_L1I TRANSLATION  ACCESS:          0 HIT:          0 MISS:          0 MSHR_MERGE:          0
cpu0->cpu0_L1I PREFETCH REQUESTED:          0 ISSUED:          0 USEFUL:          0 USELESS:          0
cpu0->cpu0_L1I AVERAGE MISS LATENCY: - cycles
cpu0->cpu0_L1D TOTAL        ACCESS:    3409719 HIT:    3087791 MISS:     321928 MSHR_MERGE:     150924
cpu0->cpu0_L1D LOAD         ACCESS:    1576125 HIT:    1471095 MISS:     105030 MSHR_MERGE:       1334
cpu0->cpu0_L1D RFO          ACCESS:          0 HIT:          0 MISS:          0 MSHR_MERGE:          0
cpu0->cpu0_L1D PREFETCH     ACCESS:          0 HIT:          0 MISS:          0 MSHR_MERGE:          0
cpu0->cpu0_L1D WRITE        ACCESS:    1829337 HIT:    1616680 MISS:     212657 MSHR_MERGE:     149590
cpu0->cpu0_L1D TRANSLATION  ACCESS:       4257 HIT:         16 MISS:       4241 MSHR_MERGE:          0
cpu0->cpu0_L1D PREFETCH REQUESTED:          0 ISSUED:          0 USEFUL:          0 USELESS:          0
cpu0->cpu0_L1D AVERAGE MISS LATENCY: 204.1 cycles
cpu0->cpu0_ITLB TOTAL        ACCESS:     907135 HIT:     907135 MISS:          0 MSHR_MERGE:          0
cpu0->cpu0_ITLB LOAD         ACCESS:     907135 HIT:     907135 MISS:          0 MSHR_MERGE:          0
cpu0->cpu0_ITLB RFO          ACCESS:          0 HIT:          0 MISS:          0 MSHR_MERGE:          0
cpu0->cpu0_ITLB PREFETCH     ACCESS:          0 HIT:          0 MISS:          0 MSHR_MERGE:          0
cpu0->cpu0_ITLB WRITE        ACCESS:          0 HIT:          0 MISS:          0 MSHR_MERGE:          0
cpu0->cpu0_ITLB TRANSLATION  ACCESS:          0 HIT:          0 MISS:          0 MSHR_MERGE:          0
cpu0->cpu0_ITLB PREFETCH REQUESTED:          0 ISSUED:          0 USEFUL:          0 USELESS:          0
cpu0->cpu0_ITLB AVERAGE MISS LATENCY: - cycles
cpu0->cpu0_DTLB TOTAL        ACCESS:    3151236 HIT:    3132341 MISS:      18895 MSHR_MERGE:       2062
cpu0->cpu0_DTLB LOAD         ACCESS:    3151236 HIT:    3132341 MISS:      18895 MSHR_MERGE:       2062
cpu0->cpu0_DTLB RFO          ACCESS:          0 HIT:          0 MISS:          0 MSHR_MERGE:          0
cpu0->cpu0_DTLB PREFETCH     ACCESS:          0 HIT:          0 MISS:          0 MSHR_MERGE:          0
cpu0->cpu0_DTLB WRITE        ACCESS:          0 HIT:          0 MISS:          0 MSHR_MERGE:          0
cpu0->cpu0_DTLB TRANSLATION  ACCESS:          0 HIT:          0 MISS:          0 MSHR_MERGE:          0
cpu0->cpu0_DTLB PREFETCH REQUESTED:          0 ISSUED:          0 USEFUL:          0 USELESS:          0
cpu0->cpu0_DTLB AVERAGE MISS LATENCY: 93.63 cycles
cpu0->LLC TOTAL        ACCESS:     208193 HIT:      69628 MISS:     138565 MSHR_MERGE:          0
cpu0->LLC LOAD         ACCESS:      87040 HIT:      10473 MISS:      76567 MSHR_MERGE:          0
cpu0->LLC RFO          ACCESS:      59542 HIT:          0 MISS:      59542 MSHR_MERGE:          0
cpu0->LLC PREFETCH     ACCESS:          0 HIT:          0 MISS:          0 MSHR_MERGE:          0
cpu0->LLC WRITE        ACCESS:      59159 HIT:      59155 MISS:          4 MSHR_MERGE:          0
cpu0->LLC TRANSLATION  ACCESS:       2452 HIT:          0 MISS:       2452 MSHR_MERGE:          0
cpu0->LLC PREFETCH REQUESTED:          0 ISSUED:          0 USEFUL:          0 USELESS:          0
cpu0->LLC AVERAGE MISS LATENCY: 223.7 cycles

DRAM Statistics

Channel 0 RQ ROW_BUFFER_HIT:          0
  ROW_BUFFER_MISS:     138554
  AVG DBUS CONGESTED CYCLE: 11.9
Channel 0 WQ ROW_BUFFER_HIT:      21231
  ROW_BUFFER_MISS:      36406
  FULL:          0
Channel 0 REFRESHES ISSUED:        954
