[VMEM] WARNING: physical memory size is smaller than virtual memory size.

*** ChampSim Multicore Out-of-Order Simulator ***
Warmup Instructions: 2000000
Simulation Instructions: 10000000
Number of CPUs: 1
Page size: 4096

Off-chip DRAM Size: 16 GiB Channels: 1 Width: 64-bit Data Rate: 3205 MT/s
Warmup finished CPU 0 instructions: 2000000 cycles: 943411 cumulative IPC: 2.12 (Simulation time: 00 hr 00 min 08 sec)
Warmup complete CPU 0 instructions: 2000000 cycles: 943411 cumulative IPC: 2.12 (Simulation time: 00 hr 00 min 08 sec)
Heartbeat CPU 0 instructions: 10000003 cycles: 34681012 heartbeat IPC: 0.2883 cumulative IPC: 0.2371 (Simulation time: 00 hr 03 min 40 sec)
Simulation finished CPU 0 instructions: 10000003 cycles: 42248847 cumulative IPC: 0.2367 (Simulation time: 00 hr 04 min 34 sec)
Simulation complete CPU 0 instructions: 10000003 cycles: 42248847 cumulative IPC: 0.2367 (Simulation time: 00 hr 04 min 34 sec)

ChampSim completed all CPUs

=== Simulation ===
CPU 0 runs traces/605.mcf_s-1536B.champsimtrace.xz

Region of Interest Statistics

CPU 0 cumulative IPC: 0.2367 instructions: 10000003 cycles: 42248847
CPU 0 Branch Prediction Accuracy: 99.97% MPKI: 0.0457 Average ROB Occupancy at Mispredict: 187.3
Branch type MPKI
BRANCH_DIRECT_JUMP: 0
BRANCH_INDIRECT: 0
BRANCH_CONDITIONAL: 0.0457
BRANCH_DIRECT_CALL: 0
BRANCH_INDIRECT_CALL: 0
BRANCH_RETURN: 0

cpu0->cpu0_STLB TOTAL        ACCESS:     298836 HIT:      73155 MISS:     225681 MSHR_MERGE:          0
cpu0->cpu0_STLB LOAD         ACCESS:     298836 HIT:      73155 MISS:     225681 MSHR_MERGE:          0
cpu0->cpu0_STLB RFO          ACCESS:          0 HIT:          0 MISS:          0 MSHR_MERGE:          0
cpu0->cpu0_STLB PREFETCH     ACCESS:          0 HIT:          0 MISS:          0 MSHR_MERGE:          0
cpu0->cpu0_STLB WRITE        ACCESS:          0 HIT:          0 MISS:          0 MSHR_MERGE:          0
cpu0->cpu0_STLB TRANSLATION  ACCESS:          0 HIT:          0 MISS:          0 MSHR_MERGE:          0
cpu0->cpu0_STLB PREFETCH REQUESTED:          0 ISSUED:          0 USEFUL:          0 USELESS:          0
cpu0->cpu0_STLB AVERAGE MISS LATENCY: 86.81 cycles
cpu0->cpu0_L2C TOTAL        ACCESS:    1106805 HIT:     417329 MISS:     689476 MSHR_MERGE:          0
cpu0->cpu0_L2C LOAD         ACCESS:     407159 HIT:      95473 MISS:     311686 MSHR_MERGE:          0
cpu0->cpu0_L2C RFO          ACCESS:      28712 HIT:       7697 MISS:      21015 MSHR_MERGE:          0
cpu0->cpu0_L2C PREFETCH     ACCESS:          0 HIT:          0 MISS:          0 MSHR_MERGE:          0
cpu0->cpu0_L2C WRITE        ACCESS:     222682 HIT:     222682 MISS:          0 MSHR_MERGE:          0
cpu0->cpu0_L2C TRANSLATION  ACCESS:     448252 HIT:      91477 MISS:     356775 MSHR_MERGE:          0
cpu0->cpu0_L2C PREFETCH REQUESTED:          0 ISSUED:          0 USEFUL:          0 USELESS:          0
cpu0->cpu0_L2C AVERAGE MISS LATENCY: 108.6 cycles
cpu0->cpu0_L1I TOTAL        ACCESS:    2213684 HIT:    2213684 MISS:          0 MSHR_MERGE:          0
cpu0->cpu0_L1I LOAD         ACCESS:    2213684 HIT:    2213684 MISS:          0 MSHR_MERGE:          0
cpu0->cpu0_L1I RFO          ACCESS:          0 HIT:          0 MISS:          0 MSHR_MERGE:          0
cpu0->cpu0_L1I PREFETCH     ACCESS:          0 HIT:          0 MISS:          0 MSHR_MERGE:          0
cpu0->cpu0_L1I WRITE        ACCESS:          0 HIT:          0 MISS:          0 MSHR_MERGE:          0
cpu0->cpu0_L1I TRANSLATION  ACCESS:          0 HIT:          0 MISS:          0 MSHR_MERGE:          0
cpu0->cpu0_L1I PREFETCH REQUESTED:          0 ISSUED:          0 USEFUL:          0 USELESS:          0
cpu0->cpu0_L1I AVERAGE MISS LATENCY: - cycles
cpu0->cpu0_L1D TOTAL        ACCESS:    2923774 HIT:    1703098 MISS:    1220676 MSHR_MERGE:     336546
cpu0->cpu0_L1D LOAD         ACCESS:    1993698 HIT:    1255366 MISS:     738332 MSHR_MERGE:     331173
cpu0->cpu0_L1D RFO          ACCESS:          0 HIT:          0 MISS:          0 MSHR_MERGE:          0
cpu0->cpu0_L1D PREFETCH     ACCESS:          0 HIT:          0 MISS:          0 MSHR_MERGE:          0
cpu0->cpu0_L1D WRITE        ACCESS:     443442 HIT:     414707 MISS:      28735 MSHR_MERGE:         17
cpu0->cpu0_L1D TRANSLATION  ACCESS:     486634 HIT:      33025 MISS:     453609 MSHR_MERGE:       5356
cpu0->cpu0_L1D PREFETCH REQUESTED:          0 ISSUED:          0 USEFUL:          0 USELESS:          0
cpu0->cpu0_L1D AVERAGE MISS LATENCY: 93.6 cycles
cpu0->cpu0_ITLB TOTAL        ACCESS:    1983077 HIT:    1983077 MISS:          0 MSHR_MERGE:          0
cpu0->cpu0_ITLB LOAD         ACCESS:    1983077 HIT:    1983077 MISS:          0 MSHR_MERGE:          0
cpu0->cpu0_ITLB RFO          ACCESS:          0 HIT:          0 MISS:          0 MSHR_MERGE:          0
cpu0->cpu0_ITLB PREFETCH     ACCESS:          0 HIT:          0 MISS:          0 MSHR_MERGE:          0
cpu0->cpu0_ITLB WRITE        ACCESS:          0 HIT:          0 MISS:          0 MSHR_MERGE:          0
cpu0->cpu0_ITLB TRANSLATION  ACCESS:          0 HIT:          0 MISS:          0 MSHR_MERGE:          0
cpu0->cpu0_ITLB PREFETCH REQUESTED:          0 ISSUED:          0 USEFUL:          0 USELESS:          0
cpu0->cpu0_ITLB AVERAGE MISS LATENCY: - cycles
cpu0->cpu0_DTLB TOTAL        ACCESS:    2417379 HIT:    1726626 MISS:     690753 MSHR_MERGE:     391918
cpu0->cpu0_DTLB LOAD         ACCESS:    2417379 HIT:    1726626 MISS:     690753 MSHR_MERGE:     391918
cpu0->cpu0_DTLB RFO          ACCESS:          0 HIT:          0 MISS:          0 MSHR_MERGE:          0
cpu0->cpu0_DTLB PREFETCH     ACCESS:          0 HIT:          0 MISS:          0 MSHR_MERGE:          0
cpu0->cpu0_DTLB WRITE        ACCESS:          0 HIT:          0 MISS:          0 MSHR_MERGE:          0
cpu0->cpu0_DTLB TRANSLATION  ACCESS:          0 HIT:          0 MISS:          0 MSHR_MERGE:          0
cpu0->cpu0_DTLB PREFETCH REQUESTED:          0 ISSUED:          0 USEFUL:          0 USELESS:          0
cpu0->cpu0_DTLB AVERAGE MISS LATENCY: 71.32 cycles
cpu0->LLC TOTAL        ACCESS:     911197 HIT:     630982 MISS:     280215 MSHR_MERGE:          0
cpu0->LLC LOAD         ACCESS:     311686 HIT:      53059 MISS:     258627 MSHR_MERGE:          0
cpu0->LLC RFO          ACCESS:      21015 HIT:      21009 MISS:          6 MSHR_MERGE:          0
cpu0->LLC PREFETCH     ACCESS:          0 HIT:          0 MISS:          0 MSHR_MERGE:          0
cpu0->LLC WRITE        ACCESS:     221721 HIT:     221721 MISS:          0 MSHR_MERGE:          0
cpu0->LLC TRANSLATION  ACCESS:     356775 HIT:     335193 MISS:      21582 MSHR_MERGE:          0
cpu0->LLC PREFETCH REQUESTED:          0 ISSUED:          0 USEFUL:          0 USELESS:          0
cpu0->LLC AVERAGE MISS LATENCY: 229.3 cycles

DRAM Statistics

Channel 0 RQ ROW_BUFFER_HIT:         66
  ROW_BUFFER_MISS:     280148
  AVG DBUS CONGESTED CYCLE: 5.866
Channel 0 WQ ROW_BUFFER_HIT:      72842
  ROW_BUFFER_MISS:     150323
  FULL:          0
Channel 0 REFRESHES ISSUED:       3521
