[VMEM] WARNING: physical memory size is smaller than virtual memory size.

*** ChampSim Multicore Out-of-Order Simulator ***
Warmup Instructions: 2000000
Simulation Instructions: 10000000
Number of CPUs: 1
Page size: 4096

Off-chip DRAM Size: 16 GiB Channels: 1 Width: 64-bit Data Rate: 3205 MT/s
Warmup finished CPU 0 instructions: 2000000 cycles: 607672 cumulative IPC: 3.291 (Simulation time: 00 hr 00 min 06 sec)
Warmup complete CPU 0 instructions: 2000000 cycles: 607672 cumulative IPC: 3.291 (Simulation time: 00 hr 00 min 06 sec)
Heartbeat CPU 0 instructions: 10000002 cycles: 5282657 heartbeat IPC: 1.893 cumulative IPC: 1.711 (Simulation time: 00 hr 00 min 45 sec)
Simulation finished CPU 0 instructions: 10000003 cycles: 5947429 cumulative IPC: 1.681 (Simulation time: 00 hr 00 min 55 sec)
Simulation complete CPU 0 instructions: 10000003 cycles: 5947429 cumulative IPC: 1.681 (Simulation time: 00 hr 00 min 55 sec)

ChampSim completed all CPUs

=== Simulation ===
CPU 0 runs traces/607.cactuBSSN_s-2421B.champsimtrace.xz

Region of Interest Statistics

CPU 0 cumulative IPC: 1.681 instructions: 10000003 cycles: 5947429
CPU 0 Branch Prediction Accuracy: 91.35% MPKI: 0.7878 Average ROB Occupancy at Mispredict: 296.3
Branch type MPKI
BRANCH_DIRECT_JUMP: 0.0033
BRANCH_INDIRECT: 0.0002
BRANCH_CONDITIONAL: 0.4136
BRANCH_DIRECT_CALL: 0.0039
BRANCH_INDIRECT_CALL: 0
BRANCH_RETURN: 0.3668

cpu0->cpu0_STLB TOTAL        ACCESS:     385196 HIT:     384754 MISS:        442 MSHR_MERGE:          0
cpu0->cpu0_STLB LOAD         ACCESS:     385196 HIT:     384754 MISS:        442 MSHR_MERGE:          0
cpu0->cpu0_STLB RFO          ACCESS:          0 HIT:          0 MISS:          0 MSHR_MERGE:          0
cpu0->cpu0_STLB PREFETCH     ACCESS:          0 HIT:          0 MISS:          0 MSHR_MERGE:          0
cpu0->cpu0_STLB WRITE        ACCESS:          0 HIT:          0 MISS:          0 MSHR_MERGE:          0
cpu0->cpu0_STLB TRANSLATION  ACCESS:          0 HIT:          0 MISS:          0 MSHR_MERGE:          0
cpu0->cpu0_STLB PREFETCH REQUESTED:          0 ISSUED:          0 USEFUL:          0 USELESS:          0
cpu0->cpu0_STLB AVERAGE MISS LATENCY: 839.6 cycles
cpu0->cpu0_L2C TOTAL        ACCESS:    1063573 HIT:    1003859 MISS:      59714 MSHR_MERGE:          0
cpu0->cpu0_L2C LOAD         ACCESS:     933756 HIT:     881870 MISS:      51886 MSHR_MERGE:          0
cpu0->cpu0_L2C RFO          ACCESS:      61097 HIT:      54361 MISS:       6736 MSHR_MERGE:          0
cpu0->cpu0_L2C PREFETCH     ACCESS:          0 HIT:          0 MISS:          0 MSHR_MERGE:          0
cpu0->cpu0_L2C WRITE        ACCESS:      67618 HIT:      67599 MISS:         19 MSHR_MERGE:          0
cpu0->cpu0_L2C TRANSLATION  ACCESS:       1102 HIT:         29 MISS:       1073 MSHR_MERGE:          0
cpu0->cpu0_L2C PREFETCH REQUESTED:          0 ISSUED:          0 USEFUL:          0 USELESS:          0
cpu0->cpu0_L2C AVERAGE MISS LATENCY: 115.2 cycles
cpu0->cpu0_L1I TOTAL        ACCESS:    2187651 HIT:    1678775 MISS:     508876 MSHR_MERGE:     248771
cpu0->cpu0_L1I LOAD         ACCESS:    2187651 HIT:    1678775 MISS:     508876 MSHR_MERGE:     248771
cpu0->cpu0_L1I RFO          ACCESS:          0 HIT:          0 MISS:          0 MSHR_MERGE:          0
cpu0->cpu0_L1I PREFETCH     ACCESS:          0 HIT:          0 MISS:          0 MSHR_MERGE:          0
cpu0->cpu0_L1I WRITE        ACCESS:          0 HIT:          0 MISS:          0 MSHR_MERGE:          0
cpu0->cpu0_L1I TRANSLATION  ACCESS:          0 HIT:          0 MISS:          0 MSHR_MERGE:          0
cpu0->cpu0_L1I PREFETCH REQUESTED:          0 ISSUED:          0 USEFUL:          0 USELESS:          0
cpu0->cpu0_L1I AVERAGE MISS LATENCY: 7.275 cycles
cpu0->cpu0_L1D TOTAL        ACCESS:    3823723 HIT:    3038225 MISS:     785498 MSHR_MERGE:      49632
cpu0->cpu0_L1D LOAD         ACCESS:    3021289 HIT:    2305187 MISS:     716102 MSHR_MERGE:      42438
cpu0->cpu0_L1D RFO          ACCESS:          0 HIT:          0 MISS:          0 MSHR_MERGE:          0
cpu0->cpu0_L1D PREFETCH     ACCESS:          0 HIT:          0 MISS:          0 MSHR_MERGE:          0
cpu0->cpu0_L1D WRITE        ACCESS:     801319 HIT:     733028 MISS:      68291 MSHR_MERGE:       7191
cpu0->cpu0_L1D TRANSLATION  ACCESS:       1115 HIT:         10 MISS:       1105 MSHR_MERGE:          3
cpu0->cpu0_L1D PREFETCH REQUESTED:          0 ISSUED:          0 USEFUL:          0 USELESS:          0
cpu0->cpu0_L1D AVERAGE MISS LATENCY: 18.57 cycles
cpu0->cpu0_ITLB TOTAL        ACCESS:    1742890 HIT:    1742875 MISS:         15 MSHR_MERGE:          5
cpu0->cpu0_ITLB LOAD         ACCESS:    1742890 HIT:    1742875 MISS:         15 MSHR_MERGE:          5
cpu0->cpu0_ITLB RFO          ACCESS:          0 HIT:          0 MISS:          0 MSHR_MERGE:          0
cpu0->cpu0_ITLB PREFETCH     ACCESS:          0 HIT:          0 MISS:          0 MSHR_MERGE:          0
cpu0->cpu0_ITLB WRITE        ACCESS:          0 HIT:          0 MISS:          0 MSHR_MERGE:          0
cpu0->cpu0_ITLB TRANSLATION  ACCESS:          0 HIT:          0 MISS:          0 MSHR_MERGE:          0
cpu0->cpu0_ITLB PREFETCH REQUESTED:          0 ISSUED:          0 USEFUL:          0 USELESS:          0
cpu0->cpu0_ITLB AVERAGE MISS LATENCY: 877.5 cycles
cpu0->cpu0_DTLB TOTAL        ACCESS:    3614892 HIT:    3185143 MISS:     429749 MSHR_MERGE:      44563
cpu0->cpu0_DTLB LOAD         ACCESS:    3614892 HIT:    3185143 MISS:     429749 MSHR_MERGE:      44563
cpu0->cpu0_DTLB RFO          ACCESS:          0 HIT:          0 MISS:          0 MSHR_MERGE:          0
cpu0->cpu0_DTLB PREFETCH     ACCESS:          0 HIT:          0 MISS:          0 MSHR_MERGE:          0
cpu0->cpu0_DTLB WRITE        ACCESS:          0 HIT:          0 MISS:          0 MSHR_MERGE:          0
cpu0->cpu0_DTLB TRANSLATION  ACCESS:          0 HIT:          0 MISS:          0 MSHR_MERGE:          0
cpu0->cpu0_DTLB PREFETCH REQUESTED:          0 ISSUED:          0 USEFUL:          0 USELESS:          0
cpu0->cpu0_DTLB AVERAGE MISS LATENCY: 5.986 cycles
cpu0->LLC TOTAL        ACCESS:      66365 HIT:      39126 MISS:      27239 MSHR_MERGE:          0
cpu0->LLC LOAD         ACCESS:      51886 HIT:      31311 MISS:      20575 MSHR_MERGE:          0
cpu0->LLC RFO          ACCESS:       6726 HIT:        786 MISS:       5940 MSHR_MERGE:          0
cpu0->LLC PREFETCH     ACCESS:          0 HIT:          0 MISS:          0 MSHR_MERGE:          0
cpu0->LLC WRITE        ACCESS:       6680 HIT:       6677 MISS:          3 MSHR_MERGE:          0
cpu0->LLC TRANSLATION  ACCESS:       1073 HIT:        352 MISS:        721 MSHR_MERGE:          0
cpu0->LLC PREFETCH REQUESTED:          0 ISSUED:          0 USEFUL:          0 USELESS:          0
cpu0->LLC AVERAGE MISS LATENCY: 218.8 cycles

DRAM Statistics

Channel 0 RQ ROW_BUFFER_HIT:         20
  ROW_BUFFER_MISS:      27216
  AVG DBUS CONGESTED CYCLE: 7.324
Channel 0 WQ ROW_BUFFER_HIT:        149
  ROW_BUFFER_MISS:       1296
  FULL:          0
Channel 0 REFRESHES ISSUED:        496
