[VMEM] WARNING: physical memory size is smaller than virtual memory size.

*** ChampSim Multicore Out-of-Order Simulator ***
Warmup Instructions: 2000000
Simulation Instructions: 10000000
Number of CPUs: 1
Page size: 4096

Off-chip DRAM Size: 16 GiB Channels: 1 Width: 64-bit Data Rate: 3205 MT/s
Warmup finished CPU 0 instructions: 2000004 cycles: 666941 cumulative IPC: 2.999 (Simulation time: 00 hr 00 min 06 sec)
Warmup complete CPU 0 instructions: 2000004 cycles: 666941 cumulative IPC: 2.999 (Simulation time: 00 hr 00 min 06 sec)
Heartbeat CPU 0 instructions: 10000001 cycles: 18526403 heartbeat IPC: 0.5398 cumulative IPC: 0.4479 (Simulation time: 00 hr 02 min 13 sec)
Simulation finished CPU 0 instructions: 10000004 cycles: 22145128 cumulative IPC: 0.4516 (Simulation time: 00 hr 02 min 44 sec)
Simulation complete CPU 0 instructions: 10000004 cycles: 22145128 cumulative IPC: 0.4516 (Simulation time: 00 hr 02 min 44 sec)

ChampSim completed all CPUs

=== Simulation ===
CPU 0 runs traces/619.lbm_s-2676B.champsimtrace.xz

Region of Interest Statistics

CPU 0 cumulative IPC: 0.4516 instructions: 10000004 cycles: 22145128
CPU 0 Branch Prediction Accuracy: 95.39% MPKI: 0.8059 Average ROB Occupancy at Mispredict: 213.6
Branch type MPKI
BRANCH_DIRECT_JUMP: 0
BRANCH_INDIRECT: 0
BRANCH_CONDITIONAL: 0.8059
BRANCH_DIRECT_CALL: 0
BRANCH_INDIRECT_CALL: 0
BRANCH_RETURN: 0

cpu0->cpu0_STLB TOTAL        ACCESS:      13234 HIT:       6052 MISS:       7182 MSHR_MERGE:          0
cpu0->cpu0_STLB LOAD         ACCESS:      13234 HIT:       6052 MISS:       7182 MSHR_MERGE:          0
cpu0->cpu0_STLB RFO          ACCESS:          0 HIT:          0 MISS:          0 MSHR_MERGE:          0
cpu0->cpu0_STLB PREFETCH     ACCESS:          0 HIT:          0 MISS:          0 MSHR_MERGE:          0
cpu0->cpu0_STLB WRITE        ACCESS:          0 HIT:          0 MISS:          0 MSHR_MERGE:          0
cpu0->cpu0_STLB TRANSLATION  ACCESS:          0 HIT:          0 MISS:          0 MSHR_MERGE:          0
cpu0->cpu0_STLB PREFETCH REQUESTED:          0 ISSUED:          0 USEFUL:          0 USELESS:          0
cpu0->cpu0_STLB AVERAGE MISS LATENCY: 1073 cycles
cpu0->cpu0_L2C TOTAL        ACCESS:    1418632 HIT:     939627 MISS:     479005 MSHR_MERGE:          0
cpu0->cpu0_L2C LOAD         ACCESS:     114888 HIT:          3 MISS:     114885 MSHR_MERGE:          0
cpu0->cpu0_L2C RFO          ACCESS:     647822 HIT:     291790 MISS:     356032 MSHR_MERGE:          0
cpu0->cpu0_L2C PREFETCH     ACCESS:          0 HIT:          0 MISS:          0 MSHR_MERGE:          0
cpu0->cpu0_L2C WRITE        ACCESS:     647833 HIT:     647833 MISS:          0 MSHR_MERGE:          0
cpu0->cpu0_L2C TRANSLATION  ACCESS:       8089 HIT:          1 MISS:       8088 MSHR_MERGE:          0
cpu0->cpu0_L2C PREFETCH REQUESTED:          0 ISSUED:          0 USEFUL:          0 USELESS:          0
cpu0->cpu0_L2C AVERAGE MISS LATENCY: 488.6 cycles
cpu0->cpu0_L1I TOTAL        ACCESS:    1566964 HIT:    1566964 MISS:          0 MSHR_MERGE:          0
cpu0->cpu0_L1I LOAD         ACCESS:    1566964 HIT:    1566964 MISS:          0 MSHR_MERGE:          0
cpu0->cpu0_L1I RFO          ACCESS:          0 HIT:          0 MISS:          0 MSHR_MERGE:          0
cpu0->cpu0_L1I PREFETCH     ACCESS:          0 HIT:          0 MISS:          0 MSHR_MERGE:          0
cpu0->cpu0_L1I WRITE        ACCESS:          0 HIT:          0 MISS:          0 MSHR_MERGE:          0
cpu0->cpu0_L1I TRANSLATION  ACCESS:          0 HIT:          0 MISS:          0 MSHR_MERGE:          0
cpu0->cpu0_L1I PREFETCH REQUESTED:          0 ISSUED:          0 USEFUL:          0 USELESS:          0
cpu0->cpu0_L1I AVERAGE MISS LATENCY: - cycles
cpu0->cpu0_L1D TOTAL        ACCESS:    2457912 HIT:    1509596 MISS:     948316 MSHR_MERGE:     177504
cpu0->cpu0_L1D LOAD         ACCESS:     631235 HIT:     371281 MISS:     259954 MSHR_MERGE:     145066
cpu0->cpu0_L1D RFO          ACCESS:          0 HIT:          0 MISS:          0 MSHR_MERGE:          0
cpu0->cpu0_L1D PREFETCH     ACCESS:          0 HIT:          0 MISS:          0 MSHR_MERGE:          0
cpu0->cpu0_L1D WRITE        ACCESS:    1812304 HIT:    1132031 MISS:     680273 MSHR_MERGE:      32438
cpu0->cpu0_L1D TRANSLATION  ACCESS:      14373 HIT:       6284 MISS:       8089 MSHR_MERGE:          0
cpu0->cpu0_L1D PREFETCH REQUESTED:          0 ISSUED:          0 USEFUL:          0 USELESS:          0
cpu0->cpu0_L1D AVERAGE MISS LATENCY: 313.2 cycles
cpu0->cpu0_ITLB TOTAL        ACCESS:    1161508 HIT:    1161508 MISS:          0 MSHR_MERGE:          0
cpu0->cpu0_ITLB LOAD         ACCESS:    1161508 HIT:    1161508 MISS:          0 MSHR_MERGE:          0
cpu0->cpu0_ITLB RFO          ACCESS:          0 HIT:          0 MISS:          0 MSHR_MERGE:          0
cpu0->cpu0_ITLB PREFETCH     ACCESS:          0 HIT:          0 MISS:          0 MSHR_MERGE:          0
cpu0->cpu0_ITLB WRITE        ACCESS:          0 HIT:          0 MISS:          0 MSHR_MERGE:          0
cpu0->cpu0_ITLB TRANSLATION  ACCESS:          0 HIT:          0 MISS:          0 MSHR_MERGE:          0
cpu0->cpu0_ITLB PREFETCH REQUESTED:          0 ISSUED:          0 USEFUL:          0 USELESS:          0
cpu0->cpu0_ITLB AVERAGE MISS LATENCY: - cycles
cpu0->cpu0_DTLB TOTAL        ACCESS:    2305273 HIT:    2259678 MISS:      45595 MSHR_MERGE:      32361
cpu0->cpu0_DTLB LOAD         ACCESS:    2305273 HIT:    2259678 MISS:      45595 MSHR_MERGE:      32361
cpu0->cpu0_DTLB RFO          ACCESS:          0 HIT:          0 MISS:          0 MSHR_MERGE:          0
cpu0->cpu0_DTLB PREFETCH     ACCESS:          0 HIT:          0 MISS:          0 MSHR_MERGE:          0
cpu0->cpu0_DTLB WRITE        ACCESS:          0 HIT:          0 MISS:          0 MSHR_MERGE:          0
cpu0->cpu0_DTLB TRANSLATION  ACCESS:          0 HIT:          0 MISS:          0 MSHR_MERGE:          0
cpu0->cpu0_DTLB PREFETCH REQUESTED:          0 ISSUED:          0 USEFUL:          0 USELESS:          0
cpu0->cpu0_DTLB AVERAGE MISS LATENCY: 588 cycles
cpu0->LLC TOTAL        ACCESS:     834924 HIT:     367352 MISS:     467572 MSHR_MERGE:          0
cpu0->LLC LOAD         ACCESS:     114885 HIT:          8 MISS:     114877 MSHR_MERGE:          0
cpu0->LLC RFO          ACCESS:     356031 HIT:      11429 MISS:     344602 MSHR_MERGE:          0
cpu0->LLC PREFETCH     ACCESS:          0 HIT:          0 MISS:          0 MSHR_MERGE:          0
cpu0->LLC WRITE        ACCESS:     355920 HIT:     355915 MISS:          5 MSHR_MERGE:          0
cpu0->LLC TRANSLATION  ACCESS:       8088 HIT:          0 MISS:       8088 MSHR_MERGE:          0
cpu0->LLC PREFETCH REQUESTED:          0 ISSUED:          0 USEFUL:          0 USELESS:          0
cpu0->LLC AVERAGE MISS LATENCY: 484.1 cycles

DRAM Statistics

Channel 0 RQ ROW_BUFFER_HIT:      24849
  ROW_BUFFER_MISS:     442718
  AVG DBUS CONGESTED CYCLE: 7.253
Channel 0 WQ ROW_BUFFER_HIT:      54328
  ROW_BUFFER_MISS:     290291
  FULL:          0
Channel 0 REFRESHES ISSUED:       1846
