[VMEM] WARNING: physical memory size is smaller than virtual memory size.

*** ChampSim Multicore Out-of-Order Simulator ***
Warmup Instructions: 2000000
Simulation Instructions: 10000000
Number of CPUs: 1
Page size: 4096

Off-chip DRAM Size: 16 GiB Channels: 1 Width: 64-bit Data Rate: 3205 MT/s
Warmup finished CPU 0 instructions: 2000000 cycles: 1508208 cumulative IPC: 1.326 (Simulation time: 00 hr 00 min 13 sec)
Warmup complete CPU 0 instructions: 2000000 cycles: 1508208 cumulative IPC: 1.326 (Simulation time: 00 hr 00 min 13 sec)
Heartbeat CPU 0 instructions: 10000004 cycles: 33873340 heartbeat IPC: 0.2952 cumulative IPC: 0.2472 (Simulation time: 00 hr 02 min 37 sec)
Simulation finished CPU 0 instructions: 10000002 cycles: 40308739 cumulative IPC: 0.2481 (Simulation time: 00 hr 03 min 12 sec)
Simulation complete CPU 0 instructions: 10000002 cycles: 40308739 cumulative IPC: 0.2481 (Simulation time: 00 hr 03 min 12 sec)

ChampSim completed all CPUs

=== Simulation ===
CPU 0 runs traces/620.omnetpp_s-141B.champsimtrace.xz

Region of Interest Statistics

CPU 0 cumulative IPC: 0.2481 instructions: 10000002 cycles: 40308739
CPU 0 Branch Prediction Accuracy: 93.12% MPKI: 14.45 Average ROB Occupancy at Mispredict: 42.99
Branch type MPKI
BRANCH_DIRECT_JUMP: 0.8198
BRANCH_INDIRECT: 0.366
BRANCH_CONDITIONAL: 11.97
BRANCH_DIRECT_CALL: 0.004
BRANCH_INDIRECT_CALL: 0.8598
BRANCH_RETURN: 0.4394

cpu0->cpu0_STLB TOTAL        ACCESS:     225448 HIT:     176531 MISS:      48917 MSHR_MERGE:          0
cpu0->cpu0_STLB LOAD         ACCESS:     225448 HIT:     176531 MISS:      48917 MSHR_MERGE:          0
cpu0->cpu0_STLB RFO          ACCESS:          0 HIT:          0 MISS:          0 MSHR_MERGE:          0
cpu0->cpu0_STLB PREFETCH     ACCESS:          0 HIT:          0 MISS:          0 MSHR_MERGE:          0
cpu0->cpu0_STLB WRITE        ACCESS:          0 HIT:          0 MISS:          0 MSHR_MERGE:          0
cpu0->cpu0_STLB TRANSLATION  ACCESS:          0 HIT:          0 MISS:          0 MSHR_MERGE:          0
cpu0->cpu0_STLB PREFETCH REQUESTED:          0 ISSUED:          0 USEFUL:          0 USELESS:          0
cpu0->cpu0_STLB AVERAGE MISS LATENCY: 430.2 cycles
cpu0->cpu0_L2C TOTAL        ACCESS:     407241 HIT:     179302 MISS:     227939 MSHR_MERGE:          0
cpu0->cpu0_L2C LOAD         ACCESS:     178333 HIT:      52035 MISS:     126298 MSHR_MERGE:          0
cpu0->cpu0_L2C RFO          ACCESS:      23713 HIT:       4703 MISS:      19010 MSHR_MERGE:          0
cpu0->cpu0_L2C PREFETCH     ACCESS:          0 HIT:          0 MISS:          0 MSHR_MERGE:          0
cpu0->cpu0_L2C WRITE        ACCESS:      96256 HIT:      96018 MISS:        238 MSHR_MERGE:          0
cpu0->cpu0_L2C TRANSLATION  ACCESS:     108939 HIT:      26546 MISS:      82393 MSHR_MERGE:          0
cpu0->cpu0_L2C PREFETCH REQUESTED:          0 ISSUED:          0 USEFUL:          0 USELESS:          0
cpu0->cpu0_L2C AVERAGE MISS LATENCY: 152.8 cycles
cpu0->cpu0_L1I TOTAL        ACCESS:    1343610 HIT:    1335975 MISS:       7635 MSHR_MERGE:       1894
cpu0->cpu0_L1I LOAD         ACCESS:    1343610 HIT:    1335975 MISS:       7635 MSHR_MERGE:       1894
cpu0->cpu0_L1I RFO          ACCESS:          0 HIT:          0 MISS:          0 MSHR_MERGE:          0
cpu0->cpu0_L1I PREFETCH     ACCESS:          0 HIT:          0 MISS:          0 MSHR_MERGE:          0
cpu0->cpu0_L1I WRITE        ACCESS:          0 HIT:          0 MISS:          0 MSHR_MERGE:          0
cpu0->cpu0_L1I TRANSLATION  ACCESS:          0 HIT:          0 MISS:          0 MSHR_MERGE:          0
cpu0->cpu0_L1I PREFETCH REQUESTED:          0 ISSUED:          0 USEFUL:          0 USELESS:          0
cpu0->cpu0_L1I AVERAGE MISS LATENCY: 20.1 cycles
cpu0->cpu0_L1D TOTAL        ACCESS:    4090647 HIT:    3684317 MISS:     406330 MSHR_MERGE:     101086
cpu0->cpu0_L1D LOAD         ACCESS:    2152974 HIT:    1931244 MISS:     221730 MSHR_MERGE:      49138
cpu0->cpu0_L1D RFO          ACCESS:          0 HIT:          0 MISS:          0 MSHR_MERGE:          0
cpu0->cpu0_L1D PREFETCH     ACCESS:          0 HIT:          0 MISS:          0 MSHR_MERGE:          0
cpu0->cpu0_L1D WRITE        ACCESS:    1819714 HIT:    1744349 MISS:      75365 MSHR_MERGE:      51652
cpu0->cpu0_L1D TRANSLATION  ACCESS:     117959 HIT:       8724 MISS:     109235 MSHR_MERGE:        296
cpu0->cpu0_L1D PREFETCH REQUESTED:          0 ISSUED:          0 USEFUL:          0 USELESS:          0
cpu0->cpu0_L1D AVERAGE MISS LATENCY: 122.6 cycles
cpu0->cpu0_ITLB TOTAL        ACCESS:    1185572 HIT:    1155767 MISS:      29805 MSHR_MERGE:      14428
cpu0->cpu0_ITLB LOAD         ACCESS:    1185572 HIT:    1155767 MISS:      29805 MSHR_MERGE:      14428
cpu0->cpu0_ITLB RFO          ACCESS:          0 HIT:          0 MISS:          0 MSHR_MERGE:          0
cpu0->cpu0_ITLB PREFETCH     ACCESS:          0 HIT:          0 MISS:          0 MSHR_MERGE:          0
cpu0->cpu0_ITLB WRITE        ACCESS:          0 HIT:          0 MISS:          0 MSHR_MERGE:          0
cpu0->cpu0_ITLB TRANSLATION  ACCESS:          0 HIT:          0 MISS:          0 MSHR_MERGE:          0
cpu0->cpu0_ITLB PREFETCH REQUESTED:          0 ISSUED:          0 USEFUL:          0 USELESS:          0
cpu0->cpu0_ITLB AVERAGE MISS LATENCY: 8.276 cycles
cpu0->cpu0_DTLB TOTAL        ACCESS:    3779501 HIT:    3534659 MISS:     244842 MSHR_MERGE:      34772
cpu0->cpu0_DTLB LOAD         ACCESS:    3779501 HIT:    3534659 MISS:     244842 MSHR_MERGE:      34772
cpu0->cpu0_DTLB RFO          ACCESS:          0 HIT:          0 MISS:          0 MSHR_MERGE:          0
cpu0->cpu0_DTLB PREFETCH     ACCESS:          0 HIT:          0 MISS:          0 MSHR_MERGE:          0
cpu0->cpu0_DTLB WRITE        ACCESS:          0 HIT:          0 MISS:          0 MSHR_MERGE:          0
cpu0->cpu0_DTLB TRANSLATION  ACCESS:          0 HIT:          0 MISS:          0 MSHR_MERGE:          0
cpu0->cpu0_DTLB PREFETCH REQUESTED:          0 ISSUED:          0 USEFUL:          0 USELESS:          0
cpu0->cpu0_DTLB AVERAGE MISS LATENCY: 105.2 cycles
cpu0->LLC TOTAL        ACCESS:     300662 HIT:     134001 MISS:     166661 MSHR_MERGE:          0
cpu0->LLC LOAD         ACCESS:     126298 HIT:      29420 MISS:      96878 MSHR_MERGE:          0
cpu0->LLC RFO          ACCESS:      19010 HIT:       7007 MISS:      12003 MSHR_MERGE:          0
cpu0->LLC PREFETCH     ACCESS:          0 HIT:          0 MISS:          0 MSHR_MERGE:          0
cpu0->LLC WRITE        ACCESS:      72961 HIT:      72677 MISS:        284 MSHR_MERGE:          0
cpu0->LLC TRANSLATION  ACCESS:      82393 HIT:      24897 MISS:      57496 MSHR_MERGE:          0
cpu0->LLC PREFETCH REQUESTED:          0 ISSUED:          0 USEFUL:          0 USELESS:          0
cpu0->LLC AVERAGE MISS LATENCY: 187.5 cycles

DRAM Statistics

Channel 0 RQ ROW_BUFFER_HIT:        576
  ROW_BUFFER_MISS:     165797
  AVG DBUS CONGESTED CYCLE: 20.41
Channel 0 WQ ROW_BUFFER_HIT:      16425
  ROW_BUFFER_MISS:      35631
  FULL:          0
Channel 0 REFRESHES ISSUED:       3359
