[VMEM] WARNING: physical memory size is smaller than virtual memory size.

*** ChampSim Multicore Out-of-Order Simulator ***
Warmup Instructions: 2000000
Simulation Instructions: 10000000
Number of CPUs: 1
Page size: 4096

Off-chip DRAM Size: 16 GiB Channels: 1 Width: 64-bit Data Rate: 3205 MT/s
Warmup finished CPU 0 instructions: 2000003 cycles: 505149 cumulative IPC: 3.959 (Simulation time: 00 hr 00 min 04 sec)
Warmup complete CPU 0 instructions: 2000003 cycles: 505149 cumulative IPC: 3.959 (Simulation time: 00 hr 00 min 04 sec)
Heartbeat CPU 0 instructions: 10000000 cycles: 7381829 heartbeat IPC: 1.355 cumulative IPC: 1.163 (Simulation time: 00 hr 00 min 41 sec)
Simulation finished CPU 0 instructions: 10000003 cycles: 8552560 cumulative IPC: 1.169 (Simulation time: 00 hr 00 min 50 sec)
Simulation complete CPU 0 instructions: 10000003 cycles: 8552560 cumulative IPC: 1.169 (Simulation time: 00 hr 00 min 50 sec)

ChampSim completed all CPUs

=== Simulation ===
CPU 0 runs traces/621.wrf_s-575B.champsimtrace.xz

Region of Interest Statistics

CPU 0 cumulative IPC: 1.169 instructions: 10000003 cycles: 8552560
CPU 0 Branch Prediction Accuracy: 93.05% MPKI: 9.314 Average ROB Occupancy at Mispredict: 65.09
Branch type MPKI
BRANCH_DIRECT_JUMP: 0.0016
BRANCH_INDIRECT: 0
BRANCH_CONDITIONAL: 9.283
BRANCH_DIRECT_CALL: 0.0078
BRANCH_INDIRECT_CALL: 0
BRANCH_RETURN: 0.021

cpu0->cpu0_STLB TOTAL        ACCESS:        234 HIT:        171 MISS:         63 MSHR_MERGE:          0
cpu0->cpu0_STLB LOAD         ACCESS:        234 HIT:        171 MISS:         63 MSHR_MERGE:          0
cpu0->cpu0_STLB RFO          ACCESS:          0 HIT:          0 MISS:          0 MSHR_MERGE:          0
cpu0->cpu0_STLB PREFETCH     ACCESS:          0 HIT:          0 MISS:          0 MSHR_MERGE:          0
cpu0->cpu0_STLB WRITE        ACCESS:          0 HIT:          0 MISS:          0 MSHR_MERGE:          0
cpu0->cpu0_STLB TRANSLATION  ACCESS:          0 HIT:          0 MISS:          0 MSHR_MERGE:          0
cpu0->cpu0_STLB PREFETCH REQUESTED:          0 ISSUED:          0 USEFUL:          0 USELESS:          0
cpu0->cpu0_STLB AVERAGE MISS LATENCY: 929.8 cycles
cpu0->cpu0_L2C TOTAL        ACCESS:        953 HIT:         60 MISS:        893 MSHR_MERGE:          0
cpu0->cpu0_L2C LOAD         ACCESS:        523 HIT:         24 MISS:        499 MSHR_MERGE:          0
cpu0->cpu0_L2C RFO          ACCESS:        270 HIT:          4 MISS:        266 MSHR_MERGE:          0
cpu0->cpu0_L2C PREFETCH     ACCESS:          0 HIT:          0 MISS:          0 MSHR_MERGE:          0
cpu0->cpu0_L2C WRITE        ACCESS:         32 HIT:         32 MISS:          0 MSHR_MERGE:          0
cpu0->cpu0_L2C TRANSLATION  ACCESS:        128 HIT:          0 MISS:        128 MSHR_MERGE:          0
cpu0->cpu0_L2C PREFETCH REQUESTED:          0 ISSUED:          0 USEFUL:          0 USELESS:          0
cpu0->cpu0_L2C AVERAGE MISS LATENCY: 208.8 cycles
cpu0->cpu0_L1I TOTAL        ACCESS:     217409 HIT:     217017 MISS:        392 MSHR_MERGE:        116
cpu0->cpu0_L1I LOAD         ACCESS:     217409 HIT:     217017 MISS:        392 MSHR_MERGE:        116
cpu0->cpu0_L1I RFO          ACCESS:          0 HIT:          0 MISS:          0 MSHR_MERGE:          0
cpu0->cpu0_L1I PREFETCH     ACCESS:          0 HIT:          0 MISS:          0 MSHR_MERGE:          0
cpu0->cpu0_L1I WRITE        ACCESS:          0 HIT:          0 MISS:          0 MSHR_MERGE:          0
cpu0->cpu0_L1I TRANSLATION  ACCESS:          0 HIT:          0 MISS:          0 MSHR_MERGE:          0
cpu0->cpu0_L1I PREFETCH REQUESTED:          0 ISSUED:          0 USEFUL:          0 USELESS:          0
cpu0->cpu0_L1I AVERAGE MISS LATENCY: 201.8 cycles
cpu0->cpu0_L1D TOTAL        ACCESS:    1846509 HIT:    1845145 MISS:       1364 MSHR_MERGE:        719
cpu0->cpu0_L1D LOAD         ACCESS:    1458907 HIT:    1458453 MISS:        454 MSHR_MERGE:        207
cpu0->cpu0_L1D RFO          ACCESS:          0 HIT:          0 MISS:          0 MSHR_MERGE:          0
cpu0->cpu0_L1D PREFETCH     ACCESS:          0 HIT:          0 MISS:          0 MSHR_MERGE:          0
cpu0->cpu0_L1D WRITE        ACCESS:     387462 HIT:     386683 MISS:        779 MSHR_MERGE:        509
cpu0->cpu0_L1D TRANSLATION  ACCESS:        140 HIT:          9 MISS:        131 MSHR_MERGE:          3
cpu0->cpu0_L1D PREFETCH REQUESTED:          0 ISSUED:          0 USEFUL:          0 USELESS:          0
cpu0->cpu0_L1D AVERAGE MISS LATENCY: 215.1 cycles
cpu0->cpu0_ITLB TOTAL        ACCESS:     180289 HIT:     180255 MISS:         34 MSHR_MERGE:         23
cpu0->cpu0_ITLB LOAD         ACCESS:     180289 HIT:     180255 MISS:         34 MSHR_MERGE:         23
cpu0->cpu0_ITLB RFO          ACCESS:          0 HIT:          0 MISS:          0 MSHR_MERGE:          0
cpu0->cpu0_ITLB PREFETCH     ACCESS:          0 HIT:          0 MISS:          0 MSHR_MERGE:          0
cpu0->cpu0_ITLB WRITE        ACCESS:          0 HIT:          0 MISS:          0 MSHR_MERGE:          0
cpu0->cpu0_ITLB TRANSLATION  ACCESS:          0 HIT:          0 MISS:          0 MSHR_MERGE:          0
cpu0->cpu0_ITLB PREFETCH REQUESTED:          0 ISSUED:          0 USEFUL:          0 USELESS:          0
cpu0->cpu0_ITLB AVERAGE MISS LATENCY: 757.7 cycles
cpu0->cpu0_DTLB TOTAL        ACCESS:    1815326 HIT:    1814851 MISS:        475 MSHR_MERGE:        252
cpu0->cpu0_DTLB LOAD         ACCESS:    1815326 HIT:    1814851 MISS:        475 MSHR_MERGE:        252
cpu0->cpu0_DTLB RFO          ACCESS:          0 HIT:          0 MISS:          0 MSHR_MERGE:          0
cpu0->cpu0_DTLB PREFETCH     ACCESS:          0 HIT:          0 MISS:          0 MSHR_MERGE:          0
cpu0->cpu0_DTLB WRITE        ACCESS:          0 HIT:          0 MISS:          0 MSHR_MERGE:          0
cpu0->cpu0_DTLB TRANSLATION  ACCESS:          0 HIT:          0 MISS:          0 MSHR_MERGE:          0
cpu0->cpu0_DTLB PREFETCH REQUESTED:          0 ISSUED:          0 USEFUL:          0 USELESS:          0
cpu0->cpu0_DTLB AVERAGE MISS LATENCY: 230.8 cycles
cpu0->LLC TOTAL        ACCESS:        893 HIT:          0 MISS:        893 MSHR_MERGE:          0
cpu0->LLC LOAD         ACCESS:        499 HIT:          0 MISS:        499 MSHR_MERGE:          0
cpu0->LLC RFO          ACCESS:        266 HIT:          0 MISS:        266 MSHR_MERGE:          0
cpu0->LLC PREFETCH     ACCESS:          0 HIT:          0 MISS:          0 MSHR_MERGE:          0
cpu0->LLC WRITE        ACCESS:          0 HIT:          0 MISS:          0 MSHR_MERGE:          0
cpu0->LLC TRANSLATION  ACCESS:        128 HIT:          0 MISS:        128 MSHR_MERGE:          0
cpu0->LLC PREFETCH REQUESTED:          0 ISSUED:          0 USEFUL:          0 USELESS:          0
cpu0->LLC AVERAGE MISS LATENCY: 192.8 cycles

DRAM Statistics

Channel 0 RQ ROW_BUFFER_HIT:          1
  ROW_BUFFER_MISS:        892
  AVG DBUS CONGESTED CYCLE: 2.896
Channel 0 WQ ROW_BUFFER_HIT:          0
  ROW_BUFFER_MISS:          0
  FULL:          0
Channel 0 REFRESHES ISSUED:        712
