[VMEM] WARNING: physical memory size is smaller than virtual memory size.

*** ChampSim Multicore Out-of-Order Simulator ***
Warmup Instructions: 2000000
Simulation Instructions: 10000000
Number of CPUs: 1
Page size: 4096

Off-chip DRAM Size: 16 GiB Channels: 1 Width: 64-bit Data Rate: 3205 MT/s
Warmup finished CPU 0 instructions: 2000001 cycles: 647727 cumulative IPC: 3.088 (Simulation time: 00 hr 00 min 05 sec)
Warmup complete CPU 0 instructions: 2000001 cycles: 647727 cumulative IPC: 3.088 (Simulation time: 00 hr 00 min 05 sec)
Heartbeat CPU 0 instructions: 10000002 cycles: 7199274 heartbeat IPC: 1.389 cumulative IPC: 1.221 (Simulation time: 00 hr 00 min 43 sec)
Simulation finished CPU 0 instructions: 10000002 cycles: 8104064 cumulative IPC: 1.234 (Simulation time: 00 hr 00 min 52 sec)
Simulation complete CPU 0 instructions: 10000002 cycles: 8104064 cumulative IPC: 1.234 (Simulation time: 00 hr 00 min 52 sec)

ChampSim completed all CPUs

=== Simulation ===
CPU 0 runs traces/628.pop2_s-17B.champsimtrace.xz

Region of Interest Statistics

CPU 0 cumulative IPC: 1.234 instructions: 10000002 cycles: 8104064
CPU 0 Branch Prediction Accuracy: 96.45% MPKI: 4.06 Average ROB Occupancy at Mispredict: 88.11
Branch type MPKI
BRANCH_DIRECT_JUMP: 0.0512
BRANCH_INDIRECT: 0.0016
BRANCH_CONDITIONAL: 4.007
BRANCH_DIRECT_CALL: 0
BRANCH_INDIRECT_CALL: 0
BRANCH_RETURN: 0.0001

cpu0->cpu0_STLB TOTAL        ACCESS:       8688 HIT:       8196 MISS:        492 MSHR_MERGE:          0
cpu0->cpu0_STLB LOAD         ACCESS:       8688 HIT:       8196 MISS:        492 MSHR_MERGE:          0
cpu0->cpu0_STLB RFO          ACCESS:          0 HIT:          0 MISS:          0 MSHR_MERGE:          0
cpu0->cpu0_STLB PREFETCH     ACCESS:          0 HIT:          0 MISS:          0 MSHR_MERGE:          0
cpu0->cpu0_STLB WRITE        ACCESS:          0 HIT:          0 MISS:          0 MSHR_MERGE:          0
cpu0->cpu0_STLB TRANSLATION  ACCESS:          0 HIT:          0 MISS:          0 MSHR_MERGE:          0
cpu0->cpu0_STLB PREFETCH REQUESTED:          0 ISSUED:          0 USEFUL:          0 USELESS:          0
cpu0->cpu0_STLB AVERAGE MISS LATENCY: 747.5 cycles
cpu0->cpu0_L2C TOTAL        ACCESS:     300870 HIT:     210201 MISS:      90669 MSHR_MERGE:          0
cpu0->cpu0_L2C LOAD         ACCESS:     164079 HIT:      95389 MISS:      68690 MSHR_MERGE:          0
cpu0->cpu0_L2C RFO          ACCESS:      54520 HIT:      33535 MISS:      20985 MSHR_MERGE:          0
cpu0->cpu0_L2C PREFETCH     ACCESS:          0 HIT:          0 MISS:          0 MSHR_MERGE:          0
cpu0->cpu0_L2C WRITE        ACCESS:      81235 HIT:      81228 MISS:          7 MSHR_MERGE:          0
cpu0->cpu0_L2C TRANSLATION  ACCESS:       1036 HIT:         49 MISS:        987 MSHR_MERGE:          0
cpu0->cpu0_L2C PREFETCH REQUESTED:          0 ISSUED:          0 USEFUL:          0 USELESS:          0
cpu0->cpu0_L2C AVERAGE MISS LATENCY: 78.89 cycles
cpu0->cpu0_L1I TOTAL        ACCESS:     752876 HIT:     731212 MISS:      21664 MSHR_MERGE:       9875
cpu0->cpu0_L1I LOAD         ACCESS:     752876 HIT:     731212 MISS:      21664 MSHR_MERGE:       9875
cpu0->cpu0_L1I RFO          ACCESS:          0 HIT:          0 MISS:          0 MSHR_MERGE:          0
cpu0->cpu0_L1I PREFETCH     ACCESS:          0 HIT:          0 MISS:          0 MSHR_MERGE:          0
cpu0->cpu0_L1I WRITE        ACCESS:          0 HIT:          0 MISS:          0 MSHR_MERGE:          0
cpu0->cpu0_L1I TRANSLATION  ACCESS:          0 HIT:          0 MISS:          0 MSHR_MERGE:          0
cpu0->cpu0_L1I PREFETCH REQUESTED:          0 ISSUED:          0 USEFUL:          0 USELESS:          0
cpu0->cpu0_L1I AVERAGE MISS LATENCY: 21.52 cycles
cpu0->cpu0_L1D TOTAL        ACCESS:    2615876 HIT:    2149371 MISS:     466505 MSHR_MERGE:     258659
cpu0->cpu0_L1D LOAD         ACCESS:    1857294 HIT:    1571945 MISS:     285349 MSHR_MERGE:     133059
cpu0->cpu0_L1D RFO          ACCESS:          0 HIT:          0 MISS:          0 MSHR_MERGE:          0
cpu0->cpu0_L1D PREFETCH     ACCESS:          0 HIT:          0 MISS:          0 MSHR_MERGE:          0
cpu0->cpu0_L1D WRITE        ACCESS:     757435 HIT:     577349 MISS:     180086 MSHR_MERGE:     125566
cpu0->cpu0_L1D TRANSLATION  ACCESS:       1147 HIT:         77 MISS:       1070 MSHR_MERGE:         34
cpu0->cpu0_L1D PREFETCH REQUESTED:          0 ISSUED:          0 USEFUL:          0 USELESS:          0
cpu0->cpu0_L1D AVERAGE MISS LATENCY: 42.09 cycles
cpu0->cpu0_ITLB TOTAL        ACCESS:     612522 HIT:     611284 MISS:       1238 MSHR_MERGE:        745
cpu0->cpu0_ITLB LOAD         ACCESS:     612522 HIT:     611284 MISS:       1238 MSHR_MERGE:        745
cpu0->cpu0_ITLB RFO          ACCESS:          0 HIT:          0 MISS:          0 MSHR_MERGE:          0
cpu0->cpu0_ITLB PREFETCH     ACCESS:          0 HIT:          0 MISS:          0 MSHR_MERGE:          0
cpu0->cpu0_ITLB WRITE        ACCESS:          0 HIT:          0 MISS:          0 MSHR_MERGE:          0
cpu0->cpu0_ITLB TRANSLATION  ACCESS:          0 HIT:          0 MISS:          0 MSHR_MERGE:          0
cpu0->cpu0_ITLB PREFETCH REQUESTED:          0 ISSUED:          0 USEFUL:          0 USELESS:          0
cpu0->cpu0_ITLB AVERAGE MISS LATENCY: 5 cycles
cpu0->cpu0_DTLB TOTAL        ACCESS:    2517891 HIT:    2503931 MISS:      13960 MSHR_MERGE:       5765
cpu0->cpu0_DTLB LOAD         ACCESS:    2517891 HIT:    2503931 MISS:      13960 MSHR_MERGE:       5765
cpu0->cpu0_DTLB RFO          ACCESS:          0 HIT:          0 MISS:          0 MSHR_MERGE:          0
cpu0->cpu0_DTLB PREFETCH     ACCESS:          0 HIT:          0 MISS:          0 MSHR_MERGE:          0
cpu0->cpu0_DTLB WRITE        ACCESS:          0 HIT:          0 MISS:          0 MSHR_MERGE:          0
cpu0->cpu0_DTLB TRANSLATION  ACCESS:          0 HIT:          0 MISS:          0 MSHR_MERGE:          0
cpu0->cpu0_DTLB PREFETCH REQUESTED:          0 ISSUED:          0 USEFUL:          0 USELESS:          0
cpu0->cpu0_DTLB AVERAGE MISS LATENCY: 49.94 cycles
cpu0->LLC TOTAL        ACCESS:     124634 HIT:      93991 MISS:      30643 MSHR_MERGE:          0
cpu0->LLC LOAD         ACCESS:      68690 HIT:      41000 MISS:      27690 MSHR_MERGE:          0
cpu0->LLC RFO          ACCESS:      20985 HIT:      18815 MISS:       2170 MSHR_MERGE:          0
cpu0->LLC PREFETCH     ACCESS:          0 HIT:          0 MISS:          0 MSHR_MERGE:          0
cpu0->LLC WRITE        ACCESS:      33972 HIT:      33906 MISS:         66 MSHR_MERGE:          0
cpu0->LLC TRANSLATION  ACCESS:        987 HIT:        270 MISS:        717 MSHR_MERGE:          0
cpu0->LLC PREFETCH REQUESTED:          0 ISSUED:          0 USEFUL:          0 USELESS:          0
cpu0->LLC AVERAGE MISS LATENCY: 188 cycles

DRAM Statistics

Channel 0 RQ ROW_BUFFER_HIT:       1028
  ROW_BUFFER_MISS:      29548
  AVG DBUS CONGESTED CYCLE: 14.93
Channel 0 WQ ROW_BUFFER_HIT:        938
  ROW_BUFFER_MISS:       2433
  FULL:          0
Channel 0 REFRESHES ISSUED:        676
