[VMEM] WARNING: physical memory size is smaller than virtual memory size.

*** ChampSim Multicore Out-of-Order Simulator ***
Warmup Instructions: 2000000
Simulation Instructions: 10000000
Number of CPUs: 1
Page size: 4096

Off-chip DRAM Size: 16 GiB Channels: 1 Width: 64-bit Data Rate: 3205 MT/s
Warmup finished CPU 0 instructions: 2000004 cycles: 606056 cumulative IPC: 3.3 (Simulation time: 00 hr 00 min 05 sec)
Warmup complete CPU 0 instructions: 2000004 cycles: 606056 cumulative IPC: 3.3 (Simulation time: 00 hr 00 min 05 sec)
Heartbeat CPU 0 instructions: 10000003 cycles: 20015895 heartbeat IPC: 0.4996 cumulative IPC: 0.4122 (Simulation time: 00 hr 02 min 05 sec)
Simulation finished CPU 0 instructions: 10000000 cycles: 24503170 cumulative IPC: 0.4081 (Simulation time: 00 hr 02 min 37 sec)
Simulation complete CPU 0 instructions: 10000000 cycles: 24503170 cumulative IPC: 0.4081 (Simulation time: 00 hr 02 min 37 sec)

ChampSim completed all CPUs

=== Simulation ===
CPU 0 runs traces/649.fotonik3d_s-1176B.champsimtrace.xz

Region of Interest Statistics

CPU 0 cumulative IPC: 0.4081 instructions: 10000000 cycles: 24503170
CPU 0 Branch Prediction Accuracy: 99.97% MPKI: 0.0044 Average ROB Occupancy at Mispredict: 352
Branch type MPKI
BRANCH_DIRECT_JUMP: 0
BRANCH_INDIRECT: 0
BRANCH_CONDITIONAL: 0.0044
BRANCH_DIRECT_CALL: 0
BRANCH_INDIRECT_CALL: 0
BRANCH_RETURN: 0

cpu0->cpu0_STLB TOTAL        ACCESS:       2314 HIT:        938 MISS:       1376 MSHR_MERGE:          0
cpu0->cpu0_STLB LOAD         ACCESS:       2314 HIT:        938 MISS:       1376 MSHR_MERGE:          0
cpu0->cpu0_STLB RFO          ACCESS:          0 HIT:          0 MISS:          0 MSHR_MERGE:          0
cpu0->cpu0_STLB PREFETCH     ACCESS:          0 HIT:          0 MISS:          0 MSHR_MERGE:          0
cpu0->cpu0_STLB WRITE        ACCESS:          0 HIT:          0 MISS:          0 MSHR_MERGE:          0
cpu0->cpu0_STLB TRANSLATION  ACCESS:          0 HIT:          0 MISS:          0 MSHR_MERGE:          0
cpu0->cpu0_STLB PREFETCH REQUESTED:          0 ISSUED:          0 USEFUL:          0 USELESS:          0
cpu0->cpu0_STLB AVERAGE MISS LATENCY: 668.3 cycles
cpu0->cpu0_L2C TOTAL        ACCESS:     221786 HIT:     124397 MISS:      97389 MSHR_MERGE:          0
cpu0->cpu0_L2C LOAD         ACCESS:     132186 HIT:      36367 MISS:      95819 MSHR_MERGE:          0
cpu0->cpu0_L2C RFO          ACCESS:        154 HIT:        144 MISS:         10 MSHR_MERGE:          0
cpu0->cpu0_L2C PREFETCH     ACCESS:          0 HIT:          0 MISS:          0 MSHR_MERGE:          0
cpu0->cpu0_L2C WRITE        ACCESS:      87847 HIT:      87847 MISS:          0 MSHR_MERGE:          0
cpu0->cpu0_L2C TRANSLATION  ACCESS:       1599 HIT:         39 MISS:       1560 MSHR_MERGE:          0
cpu0->cpu0_L2C PREFETCH REQUESTED:          0 ISSUED:          0 USEFUL:          0 USELESS:          0
cpu0->cpu0_L2C AVERAGE MISS LATENCY: 212 cycles
cpu0->cpu0_L1I TOTAL        ACCESS:    1775580 HIT:    1775580 MISS:          0 MSHR_MERGE:          0
cpu0->cpu0_L1I LOAD         ACCESS:    1775580 HIT:    1775580 MISS:          0 MSHR_MERGE:          0
cpu0->cpu0_L1I RFO          ACCESS:          0 HIT:          0 MISS:          0 MSHR_MERGE:          0
cpu0->cpu0_L1I PREFETCH     ACCESS:          0 HIT:          0 MISS:          0 MSHR_MERGE:          0
cpu0->cpu0_L1I WRITE        ACCESS:          0 HIT:          0 MISS:          0 MSHR_MERGE:          0
cpu0->cpu0_L1I TRANSLATION  ACCESS:          0 HIT:          0 MISS:          0 MSHR_MERGE:          0
cpu0->cpu0_L1I PREFETCH REQUESTED:          0 ISSUED:          0 USEFUL:          0 USELESS:          0
cpu0->cpu0_L1I AVERAGE MISS LATENCY: - cycles
cpu0->cpu0_L1D TOTAL        ACCESS:    3081274 HIT:    2571571 MISS:     509703 MSHR_MERGE:     375764
cpu0->cpu0_L1D LOAD         ACCESS:    2376458 HIT:    1868796 MISS:     507662 MSHR_MERGE:     375476
cpu0->cpu0_L1D RFO          ACCESS:          0 HIT:          0 MISS:          0 MSHR_MERGE:          0
cpu0->cpu0_L1D PREFETCH     ACCESS:          0 HIT:          0 MISS:          0 MSHR_MERGE:          0
cpu0->cpu0_L1D WRITE        ACCESS:     702056 HIT:     701614 MISS:        442 MSHR_MERGE:        288
cpu0->cpu0_L1D TRANSLATION  ACCESS:       2760 HIT:       1161 MISS:       1599 MSHR_MERGE:          0
cpu0->cpu0_L1D PREFETCH REQUESTED:          0 ISSUED:          0 USEFUL:          0 USELESS:          0
cpu0->cpu0_L1D AVERAGE MISS LATENCY: 162.9 cycles
cpu0->cpu0_ITLB TOTAL        ACCESS:    1425110 HIT:    1425110 MISS:          0 MSHR_MERGE:          0
cpu0->cpu0_ITLB LOAD         ACCESS:    1425110 HIT:    1425110 MISS:          0 MSHR_MERGE:          0
cpu0->cpu0_ITLB RFO          ACCESS:          0 HIT:          0 MISS:          0 MSHR_MERGE:          0
cpu0->cpu0_ITLB PREFETCH     ACCESS:          0 HIT:          0 MISS:          0 MSHR_MERGE:          0
cpu0->cpu0_ITLB WRITE        ACCESS:          0 HIT:          0 MISS:          0 MSHR_MERGE:          0
cpu0->cpu0_ITLB TRANSLATION  ACCESS:          0 HIT:          0 MISS:          0 MSHR_MERGE:          0
cpu0->cpu0_ITLB PREFETCH REQUESTED:          0 ISSUED:          0 USEFUL:          0 USELESS:          0
cpu0->cpu0_ITLB AVERAGE MISS LATENCY: - cycles
cpu0->cpu0_DTLB TOTAL        ACCESS:    2833977 HIT:    2826073 MISS:       7904 MSHR_MERGE:       5590
cpu0->cpu0_DTLB LOAD         ACCESS:    2833977 HIT:    2826073 MISS:       7904 MSHR_MERGE:       5590
cpu0->cpu0_DTLB RFO          ACCESS:          0 HIT:          0 MISS:          0 MSHR_MERGE:          0
cpu0->cpu0_DTLB PREFETCH     ACCESS:          0 HIT:          0 MISS:          0 MSHR_MERGE:          0
cpu0->cpu0_DTLB WRITE        ACCESS:          0 HIT:          0 MISS:          0 MSHR_MERGE:          0
cpu0->cpu0_DTLB TRANSLATION  ACCESS:          0 HIT:          0 MISS:          0 MSHR_MERGE:          0
cpu0->cpu0_DTLB PREFETCH REQUESTED:          0 ISSUED:          0 USEFUL:          0 USELESS:          0
cpu0->cpu0_DTLB AVERAGE MISS LATENCY: 403 cycles
cpu0->LLC TOTAL        ACCESS:     185102 HIT:      94305 MISS:      90797 MSHR_MERGE:          0
cpu0->LLC LOAD         ACCESS:      95819 HIT:       6586 MISS:      89233 MSHR_MERGE:          0
cpu0->LLC RFO          ACCESS:         10 HIT:         10 MISS:          0 MSHR_MERGE:          0
cpu0->LLC PREFETCH     ACCESS:          0 HIT:          0 MISS:          0 MSHR_MERGE:          0
cpu0->LLC WRITE        ACCESS:      87713 HIT:      87709 MISS:          4 MSHR_MERGE:          0
cpu0->LLC TRANSLATION  ACCESS:       1560 HIT:          0 MISS:       1560 MSHR_MERGE:          0
cpu0->LLC PREFETCH REQUESTED:          0 ISSUED:          0 USEFUL:          0 USELESS:          0
cpu0->LLC AVERAGE MISS LATENCY: 210.3 cycles

DRAM Statistics

Channel 0 RQ ROW_BUFFER_HIT:       3330
  ROW_BUFFER_MISS:      87463
  AVG DBUS CONGESTED CYCLE: 10.87
Channel 0 WQ ROW_BUFFER_HIT:      30107
  ROW_BUFFER_MISS:      44219
  FULL:          0
Channel 0 REFRESHES ISSUED:       2042
