[VMEM] WARNING: physical memory size is smaller than virtual memory size.

*** ChampSim Multicore Out-of-Order Simulator ***
Warmup Instructions: 2000000
Simulation Instructions: 10000000
Number of CPUs: 1
Page size: 4096

Off-chip DRAM Size: 16 GiB Channels: 1 Width: 64-bit Data Rate: 3205 MT/s
Warmup finished CPU 0 instructions: 2000000 cycles: 526097 cumulative IPC: 3.802 (Simulation time: 00 hr 00 min 05 sec)
Warmup complete CPU 0 instructions: 2000000 cycles: 526097 cumulative IPC: 3.802 (Simulation time: 00 hr 00 min 05 sec)
Heartbeat CPU 0 instructions: 10000004 cycles: 6921639 heartbeat IPC: 1.445 cumulative IPC: 1.251 (Simulation time: 00 hr 00 min 52 sec)
Simulation finished CPU 0 instructions: 10000000 cycles: 9815430 cumulative IPC: 1.019 (Simulation time: 00 hr 01 min 15 sec)
Simulation complete CPU 0 instructions: 10000000 cycles: 9815430 cumulative IPC: 1.019 (Simulation time: 00 hr 01 min 15 sec)

ChampSim completed all CPUs

=== Simulation ===
CPU 0 runs traces/654.roms_s-293B.champsimtrace.xz

Region of Interest Statistics

CPU 0 cumulative IPC: 1.019 instructions: 10000000 cycles: 9815430
CPU 0 Branch Prediction Accuracy: 99.78% MPKI: 0.0331 Average ROB Occupancy at Mispredict: 312.1
Branch type MPKI
BRANCH_DIRECT_JUMP: 0.0001
BRANCH_INDIRECT: 0
BRANCH_CONDITIONAL: 0.033
BRANCH_DIRECT_CALL: 0
BRANCH_INDIRECT_CALL: 0
BRANCH_RETURN: 0

cpu0->cpu0_STLB TOTAL        ACCESS:       2996 HIT:       1574 MISS:       1422 MSHR_MERGE:          0
cpu0->cpu0_STLB LOAD         ACCESS:       2996 HIT:       1574 MISS:       1422 MSHR_MERGE:          0
cpu0->cpu0_STLB RFO          ACCESS:          0 HIT:          0 MISS:          0 MSHR_MERGE:          0
cpu0->cpu0_STLB PREFETCH     ACCESS:          0 HIT:          0 MISS:          0 MSHR_MERGE:          0
cpu0->cpu0_STLB WRITE        ACCESS:          0 HIT:          0 MISS:          0 MSHR_MERGE:          0
cpu0->cpu0_STLB TRANSLATION  ACCESS:          0 HIT:          0 MISS:          0 MSHR_MERGE:          0
cpu0->cpu0_STLB PREFETCH REQUESTED:          0 ISSUED:          0 USEFUL:          0 USELESS:          0
cpu0->cpu0_STLB AVERAGE MISS LATENCY: 909.7 cycles
cpu0->cpu0_L2C TOTAL        ACCESS:     191463 HIT:      76844 MISS:     114619 MSHR_MERGE:          0
cpu0->cpu0_L2C LOAD         ACCESS:      87705 HIT:      25899 MISS:      61806 MSHR_MERGE:          0
cpu0->cpu0_L2C RFO          ACCESS:      50357 HIT:        198 MISS:      50159 MSHR_MERGE:          0
cpu0->cpu0_L2C PREFETCH     ACCESS:          0 HIT:          0 MISS:          0 MSHR_MERGE:          0
cpu0->cpu0_L2C WRITE        ACCESS:      50559 HIT:      50501 MISS:         58 MSHR_MERGE:          0
cpu0->cpu0_L2C TRANSLATION  ACCESS:       2842 HIT:        246 MISS:       2596 MSHR_MERGE:          0
cpu0->cpu0_L2C PREFETCH REQUESTED:          0 ISSUED:          0 USEFUL:          0 USELESS:          0
cpu0->cpu0_L2C AVERAGE MISS LATENCY: 177 cycles
cpu0->cpu0_L1I TOTAL        ACCESS:    2011557 HIT:    2011495 MISS:         62 MSHR_MERGE:         20
cpu0->cpu0_L1I LOAD         ACCESS:    2011557 HIT:    2011495 MISS:         62 MSHR_MERGE:         20
cpu0->cpu0_L1I RFO          ACCESS:          0 HIT:          0 MISS:          0 MSHR_MERGE:          0
cpu0->cpu0_L1I PREFETCH     ACCESS:          0 HIT:          0 MISS:          0 MSHR_MERGE:          0
cpu0->cpu0_L1I WRITE        ACCESS:          0 HIT:          0 MISS:          0 MSHR_MERGE:          0
cpu0->cpu0_L1I TRANSLATION  ACCESS:          0 HIT:          0 MISS:          0 MSHR_MERGE:          0
cpu0->cpu0_L1I PREFETCH REQUESTED:          0 ISSUED:          0 USEFUL:          0 USELESS:          0
cpu0->cpu0_L1I AVERAGE MISS LATENCY: 285.5 cycles
cpu0->cpu0_L1D TOTAL        ACCESS:    3187162 HIT:    2843193 MISS:     343969 MSHR_MERGE:     203093
cpu0->cpu0_L1D LOAD         ACCESS:    2280673 HIT:    2129179 MISS:     151494 MSHR_MERGE:      63831
cpu0->cpu0_L1D RFO          ACCESS:          0 HIT:          0 MISS:          0 MSHR_MERGE:          0
cpu0->cpu0_L1D PREFETCH     ACCESS:          0 HIT:          0 MISS:          0 MSHR_MERGE:          0
cpu0->cpu0_L1D WRITE        ACCESS:     903038 HIT:     713421 MISS:     189617 MSHR_MERGE:     139246
cpu0->cpu0_L1D TRANSLATION  ACCESS:       3451 HIT:        593 MISS:       2858 MSHR_MERGE:         16
cpu0->cpu0_L1D PREFETCH REQUESTED:          0 ISSUED:          0 USEFUL:          0 USELESS:          0
cpu0->cpu0_L1D AVERAGE MISS LATENCY: 152.7 cycles
cpu0->cpu0_ITLB TOTAL        ACCESS:    1520823 HIT:    1520822 MISS:          1 MSHR_MERGE:          0
cpu0->cpu0_ITLB LOAD         ACCESS:    1520823 HIT:    1520822 MISS:          1 MSHR_MERGE:          0
cpu0->cpu0_ITLB RFO          ACCESS:          0 HIT:          0 MISS:          0 MSHR_MERGE:          0
cpu0->cpu0_ITLB PREFETCH     ACCESS:          0 HIT:          0 MISS:          0 MSHR_MERGE:          0
cpu0->cpu0_ITLB WRITE        ACCESS:          0 HIT:          0 MISS:          0 MSHR_MERGE:          0
cpu0->cpu0_ITLB TRANSLATION  ACCESS:          0 HIT:          0 MISS:          0 MSHR_MERGE:          0
cpu0->cpu0_ITLB PREFETCH REQUESTED:          0 ISSUED:          0 USEFUL:          0 USELESS:          0
cpu0->cpu0_ITLB AVERAGE MISS LATENCY: 1063 cycles
cpu0->cpu0_DTLB TOTAL        ACCESS:    3028200 HIT:    3018098 MISS:      10102 MSHR_MERGE:       7107
cpu0->cpu0_DTLB LOAD         ACCESS:    3028200 HIT:    3018098 MISS:      10102 MSHR_MERGE:       7107
cpu0->cpu0_DTLB RFO          ACCESS:          0 HIT:          0 MISS:          0 MSHR_MERGE:          0
cpu0->cpu0_DTLB PREFETCH     ACCESS:          0 HIT:          0 MISS:          0 MSHR_MERGE:          0
cpu0->cpu0_DTLB WRITE        ACCESS:          0 HIT:          0 MISS:          0 MSHR_MERGE:          0
cpu0->cpu0_DTLB TRANSLATION  ACCESS:          0 HIT:          0 MISS:          0 MSHR_MERGE:          0
cpu0->cpu0_DTLB PREFETCH REQUESTED:          0 ISSUED:          0 USEFUL:          0 USELESS:          0
cpu0->cpu0_DTLB AVERAGE MISS LATENCY: 437.2 cycles
cpu0->LLC TOTAL        ACCESS:     166484 HIT:      85411 MISS:      81073 MSHR_MERGE:          0
cpu0->LLC LOAD         ACCESS:      61806 HIT:      25607 MISS:      36199 MSHR_MERGE:          0
cpu0->LLC RFO          ACCESS:      50159 HIT:       7862 MISS:      42297 MSHR_MERGE:          0
cpu0->LLC PREFETCH     ACCESS:          0 HIT:          0 MISS:          0 MSHR_MERGE:          0
cpu0->LLC WRITE        ACCESS:      51923 HIT:      51915 MISS:          8 MSHR_MERGE:          0
cpu0->LLC TRANSLATION  ACCESS:       2596 HIT:         27 MISS:       2569 MSHR_MERGE:          0
cpu0->LLC PREFETCH REQUESTED:          0 ISSUED:          0 USEFUL:          0 USELESS:          0
cpu0->LLC AVERAGE MISS LATENCY: 228 cycles

DRAM Statistics

Channel 0 RQ ROW_BUFFER_HIT:        438
  ROW_BUFFER_MISS:      80490
  AVG DBUS CONGESTED CYCLE: 7.544
Channel 0 WQ ROW_BUFFER_HIT:      11393
  ROW_BUFFER_MISS:      25488
  FULL:          0
Channel 0 REFRESHES ISSUED:        818
